* NGSPICE file created from core0.ext - technology: gf180mcuD

* Black-box entry subcircuit for gf180mcu_fd_sc_mcu7t5v0__fill_2 abstract view
.subckt gf180mcu_fd_sc_mcu7t5v0__fill_2 VDD VNW VPW VSS
.ends

* Black-box entry subcircuit for gf180mcu_fd_sc_mcu7t5v0__antenna abstract view
.subckt gf180mcu_fd_sc_mcu7t5v0__antenna I VDD VNW VPW VSS
.ends

* Black-box entry subcircuit for gf180mcu_fd_sc_mcu7t5v0__fill_1 abstract view
.subckt gf180mcu_fd_sc_mcu7t5v0__fill_1 VDD VNW VPW VSS
.ends

* Black-box entry subcircuit for gf180mcu_fd_sc_mcu7t5v0__filltie abstract view
.subckt gf180mcu_fd_sc_mcu7t5v0__filltie VDD VSS
.ends

* Black-box entry subcircuit for gf180mcu_fd_sc_mcu7t5v0__fillcap_4 abstract view
.subckt gf180mcu_fd_sc_mcu7t5v0__fillcap_4 VDD VNW VPW VSS
.ends

* Black-box entry subcircuit for gf180mcu_fd_sc_mcu7t5v0__oai21_1 abstract view
.subckt gf180mcu_fd_sc_mcu7t5v0__oai21_1 A1 A2 B ZN VDD VNW VPW VSS
.ends

* Black-box entry subcircuit for gf180mcu_fd_sc_mcu7t5v0__clkinv_1 abstract view
.subckt gf180mcu_fd_sc_mcu7t5v0__clkinv_1 I ZN VDD VNW VPW VSS
.ends

* Black-box entry subcircuit for gf180mcu_fd_sc_mcu7t5v0__aoi21_1 abstract view
.subckt gf180mcu_fd_sc_mcu7t5v0__aoi21_1 A1 A2 B ZN VDD VNW VPW VSS
.ends

* Black-box entry subcircuit for gf180mcu_fd_sc_mcu7t5v0__and3_1 abstract view
.subckt gf180mcu_fd_sc_mcu7t5v0__and3_1 A1 A2 A3 Z VDD VNW VPW VSS
.ends

* Black-box entry subcircuit for gf180mcu_fd_sc_mcu7t5v0__dffq_4 abstract view
.subckt gf180mcu_fd_sc_mcu7t5v0__dffq_4 D CLK Q VDD VNW VPW VSS
.ends

* Black-box entry subcircuit for gf180mcu_fd_sc_mcu7t5v0__fillcap_16 abstract view
.subckt gf180mcu_fd_sc_mcu7t5v0__fillcap_16 VDD VNW VPW VSS
.ends

* Black-box entry subcircuit for gf180mcu_fd_sc_mcu7t5v0__fillcap_8 abstract view
.subckt gf180mcu_fd_sc_mcu7t5v0__fillcap_8 VDD VNW VPW VSS
.ends

* Black-box entry subcircuit for gf180mcu_fd_sc_mcu7t5v0__dffq_1 abstract view
.subckt gf180mcu_fd_sc_mcu7t5v0__dffq_1 D CLK Q VDD VNW VPW VSS
.ends

* Black-box entry subcircuit for gf180mcu_fd_sc_mcu7t5v0__buf_4 abstract view
.subckt gf180mcu_fd_sc_mcu7t5v0__buf_4 I Z VDD VNW VPW VSS
.ends

* Black-box entry subcircuit for gf180mcu_fd_sc_mcu7t5v0__nand2_1 abstract view
.subckt gf180mcu_fd_sc_mcu7t5v0__nand2_1 A1 A2 ZN VDD VNW VPW VSS
.ends

* Black-box entry subcircuit for gf180mcu_fd_sc_mcu7t5v0__nor2_1 abstract view
.subckt gf180mcu_fd_sc_mcu7t5v0__nor2_1 A1 A2 ZN VDD VNW VPW VSS
.ends

* Black-box entry subcircuit for gf180mcu_fd_sc_mcu7t5v0__buf_3 abstract view
.subckt gf180mcu_fd_sc_mcu7t5v0__buf_3 I Z VDD VNW VPW VSS
.ends

* Black-box entry subcircuit for gf180mcu_fd_sc_mcu7t5v0__fillcap_32 abstract view
.subckt gf180mcu_fd_sc_mcu7t5v0__fillcap_32 VDD VNW VPW VSS
.ends

* Black-box entry subcircuit for gf180mcu_fd_sc_mcu7t5v0__nand2_2 abstract view
.subckt gf180mcu_fd_sc_mcu7t5v0__nand2_2 A1 A2 ZN VDD VNW VPW VSS
.ends

* Black-box entry subcircuit for gf180mcu_fd_sc_mcu7t5v0__aoi21_2 abstract view
.subckt gf180mcu_fd_sc_mcu7t5v0__aoi21_2 A1 A2 B ZN VDD VNW VPW VSS
.ends

* Black-box entry subcircuit for gf180mcu_fd_sc_mcu7t5v0__clkbuf_2 abstract view
.subckt gf180mcu_fd_sc_mcu7t5v0__clkbuf_2 I Z VDD VNW VPW VSS
.ends

* Black-box entry subcircuit for gf180mcu_fd_sc_mcu7t5v0__clkbuf_16 abstract view
.subckt gf180mcu_fd_sc_mcu7t5v0__clkbuf_16 I Z VDD VNW VPW VSS
.ends

* Black-box entry subcircuit for gf180mcu_fd_sc_mcu7t5v0__mux2_2 abstract view
.subckt gf180mcu_fd_sc_mcu7t5v0__mux2_2 I0 I1 S Z VDD VNW VPW VSS
.ends

* Black-box entry subcircuit for gf180mcu_fd_sc_mcu7t5v0__fillcap_64 abstract view
.subckt gf180mcu_fd_sc_mcu7t5v0__fillcap_64 VDD VNW VPW VSS
.ends

* Black-box entry subcircuit for gf180mcu_fd_sc_mcu7t5v0__oai31_2 abstract view
.subckt gf180mcu_fd_sc_mcu7t5v0__oai31_2 A1 A2 A3 B ZN VDD VNW VPW VSS
.ends

* Black-box entry subcircuit for gf180mcu_fd_sc_mcu7t5v0__oai22_2 abstract view
.subckt gf180mcu_fd_sc_mcu7t5v0__oai22_2 A1 A2 B1 B2 ZN VDD VNW VPW VSS
.ends

* Black-box entry subcircuit for gf180mcu_fd_sc_mcu7t5v0__or2_1 abstract view
.subckt gf180mcu_fd_sc_mcu7t5v0__or2_1 A1 A2 Z VDD VNW VPW VSS
.ends

* Black-box entry subcircuit for gf180mcu_fd_sc_mcu7t5v0__mux4_4 abstract view
.subckt gf180mcu_fd_sc_mcu7t5v0__mux4_4 I0 I1 I2 I3 S0 S1 Z VDD VNW VPW VSS
.ends

* Black-box entry subcircuit for gf180mcu_fd_sc_mcu7t5v0__aoi22_4 abstract view
.subckt gf180mcu_fd_sc_mcu7t5v0__aoi22_4 A1 A2 B1 B2 ZN VDD VNW VPW VSS
.ends

* Black-box entry subcircuit for gf180mcu_fd_sc_mcu7t5v0__nand3_1 abstract view
.subckt gf180mcu_fd_sc_mcu7t5v0__nand3_1 A1 A2 A3 ZN VDD VNW VPW VSS
.ends

* Black-box entry subcircuit for gf180mcu_fd_sc_mcu7t5v0__nand3_2 abstract view
.subckt gf180mcu_fd_sc_mcu7t5v0__nand3_2 A1 A2 A3 ZN VDD VNW VPW VSS
.ends

* Black-box entry subcircuit for gf180mcu_fd_sc_mcu7t5v0__dffq_2 abstract view
.subckt gf180mcu_fd_sc_mcu7t5v0__dffq_2 D CLK Q VDD VNW VPW VSS
.ends

* Black-box entry subcircuit for gf180mcu_fd_sc_mcu7t5v0__nand4_4 abstract view
.subckt gf180mcu_fd_sc_mcu7t5v0__nand4_4 A1 A2 A3 A4 ZN VDD VNW VPW VSS
.ends

* Black-box entry subcircuit for gf180mcu_fd_sc_mcu7t5v0__endcap abstract view
.subckt gf180mcu_fd_sc_mcu7t5v0__endcap VDD VSS
.ends

* Black-box entry subcircuit for gf180mcu_fd_sc_mcu7t5v0__aoi211_1 abstract view
.subckt gf180mcu_fd_sc_mcu7t5v0__aoi211_1 A1 A2 B C ZN VDD VNW VPW VSS
.ends

* Black-box entry subcircuit for gf180mcu_fd_sc_mcu7t5v0__aoi22_1 abstract view
.subckt gf180mcu_fd_sc_mcu7t5v0__aoi22_1 A1 A2 B1 B2 ZN VDD VNW VPW VSS
.ends

* Black-box entry subcircuit for gf180mcu_fd_sc_mcu7t5v0__and4_1 abstract view
.subckt gf180mcu_fd_sc_mcu7t5v0__and4_1 A1 A2 A3 A4 Z VDD VNW VPW VSS
.ends

* Black-box entry subcircuit for gf180mcu_fd_sc_mcu7t5v0__nand2_4 abstract view
.subckt gf180mcu_fd_sc_mcu7t5v0__nand2_4 A1 A2 ZN VDD VNW VPW VSS
.ends

* Black-box entry subcircuit for gf180mcu_fd_sc_mcu7t5v0__nand4_2 abstract view
.subckt gf180mcu_fd_sc_mcu7t5v0__nand4_2 A1 A2 A3 A4 ZN VDD VNW VPW VSS
.ends

* Black-box entry subcircuit for gf180mcu_fd_sc_mcu7t5v0__clkbuf_3 abstract view
.subckt gf180mcu_fd_sc_mcu7t5v0__clkbuf_3 I Z VDD VNW VPW VSS
.ends

* Black-box entry subcircuit for gf180mcu_fd_sc_mcu7t5v0__nor3_4 abstract view
.subckt gf180mcu_fd_sc_mcu7t5v0__nor3_4 A1 A2 A3 ZN VDD VNW VPW VSS
.ends

* Black-box entry subcircuit for gf180mcu_fd_sc_mcu7t5v0__or4_2 abstract view
.subckt gf180mcu_fd_sc_mcu7t5v0__or4_2 A1 A2 A3 A4 Z VDD VNW VPW VSS
.ends

* Black-box entry subcircuit for gf180mcu_fd_sc_mcu7t5v0__and2_1 abstract view
.subckt gf180mcu_fd_sc_mcu7t5v0__and2_1 A1 A2 Z VDD VNW VPW VSS
.ends

* Black-box entry subcircuit for gf180mcu_fd_sc_mcu7t5v0__and2_2 abstract view
.subckt gf180mcu_fd_sc_mcu7t5v0__and2_2 A1 A2 Z VDD VNW VPW VSS
.ends

* Black-box entry subcircuit for gf180mcu_fd_sc_mcu7t5v0__xor2_1 abstract view
.subckt gf180mcu_fd_sc_mcu7t5v0__xor2_1 A1 A2 Z VDD VNW VPW VSS
.ends

* Black-box entry subcircuit for gf180mcu_fd_sc_mcu7t5v0__clkbuf_8 abstract view
.subckt gf180mcu_fd_sc_mcu7t5v0__clkbuf_8 I Z VDD VNW VPW VSS
.ends

* Black-box entry subcircuit for gf180mcu_fd_sc_mcu7t5v0__aoi221_4 abstract view
.subckt gf180mcu_fd_sc_mcu7t5v0__aoi221_4 A1 A2 B1 B2 C ZN VDD VNW VPW VSS
.ends

* Black-box entry subcircuit for gf180mcu_fd_sc_mcu7t5v0__nor2_4 abstract view
.subckt gf180mcu_fd_sc_mcu7t5v0__nor2_4 A1 A2 ZN VDD VNW VPW VSS
.ends

* Black-box entry subcircuit for gf180mcu_fd_sc_mcu7t5v0__xnor2_1 abstract view
.subckt gf180mcu_fd_sc_mcu7t5v0__xnor2_1 A1 A2 ZN VDD VNW VPW VSS
.ends

* Black-box entry subcircuit for gf180mcu_fd_sc_mcu7t5v0__aoi222_1 abstract view
.subckt gf180mcu_fd_sc_mcu7t5v0__aoi222_1 A1 A2 B1 B2 C1 C2 ZN VDD VNW VPW VSS
.ends

* Black-box entry subcircuit for gf180mcu_fd_sc_mcu7t5v0__oai22_1 abstract view
.subckt gf180mcu_fd_sc_mcu7t5v0__oai22_1 A1 A2 B1 B2 ZN VDD VNW VPW VSS
.ends

* Black-box entry subcircuit for gf180mcu_fd_sc_mcu7t5v0__clkbuf_1 abstract view
.subckt gf180mcu_fd_sc_mcu7t5v0__clkbuf_1 I Z VDD VNW VPW VSS
.ends

* Black-box entry subcircuit for gf180mcu_fd_sc_mcu7t5v0__oai211_1 abstract view
.subckt gf180mcu_fd_sc_mcu7t5v0__oai211_1 A1 A2 B C ZN VDD VNW VPW VSS
.ends

* Black-box entry subcircuit for gf180mcu_fd_sc_mcu7t5v0__buf_2 abstract view
.subckt gf180mcu_fd_sc_mcu7t5v0__buf_2 I Z VDD VNW VPW VSS
.ends

* Black-box entry subcircuit for gf180mcu_fd_sc_mcu7t5v0__nor2_2 abstract view
.subckt gf180mcu_fd_sc_mcu7t5v0__nor2_2 A1 A2 ZN VDD VNW VPW VSS
.ends

* Black-box entry subcircuit for gf180mcu_fd_sc_mcu7t5v0__oai211_2 abstract view
.subckt gf180mcu_fd_sc_mcu7t5v0__oai211_2 A1 A2 B C ZN VDD VNW VPW VSS
.ends

* Black-box entry subcircuit for gf180mcu_fd_sc_mcu7t5v0__aoi22_2 abstract view
.subckt gf180mcu_fd_sc_mcu7t5v0__aoi22_2 A1 A2 B1 B2 ZN VDD VNW VPW VSS
.ends

* Black-box entry subcircuit for gf180mcu_fd_sc_mcu7t5v0__oai21_2 abstract view
.subckt gf180mcu_fd_sc_mcu7t5v0__oai21_2 A1 A2 B ZN VDD VNW VPW VSS
.ends

* Black-box entry subcircuit for gf180mcu_fd_sc_mcu7t5v0__and2_4 abstract view
.subckt gf180mcu_fd_sc_mcu7t5v0__and2_4 A1 A2 Z VDD VNW VPW VSS
.ends

* Black-box entry subcircuit for gf180mcu_fd_sc_mcu7t5v0__or3_1 abstract view
.subckt gf180mcu_fd_sc_mcu7t5v0__or3_1 A1 A2 A3 Z VDD VNW VPW VSS
.ends

* Black-box entry subcircuit for gf180mcu_fd_sc_mcu7t5v0__oai211_4 abstract view
.subckt gf180mcu_fd_sc_mcu7t5v0__oai211_4 A1 A2 B C ZN VDD VNW VPW VSS
.ends

* Black-box entry subcircuit for gf180mcu_fd_sc_mcu7t5v0__clkinv_3 abstract view
.subckt gf180mcu_fd_sc_mcu7t5v0__clkinv_3 I ZN VDD VNW VPW VSS
.ends

* Black-box entry subcircuit for gf180mcu_fd_sc_mcu7t5v0__and4_2 abstract view
.subckt gf180mcu_fd_sc_mcu7t5v0__and4_2 A1 A2 A3 A4 Z VDD VNW VPW VSS
.ends

* Black-box entry subcircuit for gf180mcu_fd_sc_mcu7t5v0__nor3_1 abstract view
.subckt gf180mcu_fd_sc_mcu7t5v0__nor3_1 A1 A2 A3 ZN VDD VNW VPW VSS
.ends

* Black-box entry subcircuit for gf180mcu_fd_sc_mcu7t5v0__xor2_2 abstract view
.subckt gf180mcu_fd_sc_mcu7t5v0__xor2_2 A1 A2 Z VDD VNW VPW VSS
.ends

* Black-box entry subcircuit for gf180mcu_fd_sc_mcu7t5v0__nor4_2 abstract view
.subckt gf180mcu_fd_sc_mcu7t5v0__nor4_2 A1 A2 A3 A4 ZN VDD VNW VPW VSS
.ends

* Black-box entry subcircuit for gf180mcu_fd_sc_mcu7t5v0__oai21_4 abstract view
.subckt gf180mcu_fd_sc_mcu7t5v0__oai21_4 A1 A2 B ZN VDD VNW VPW VSS
.ends

* Black-box entry subcircuit for gf180mcu_fd_sc_mcu7t5v0__inv_1 abstract view
.subckt gf180mcu_fd_sc_mcu7t5v0__inv_1 I ZN VDD VNW VPW VSS
.ends

* Black-box entry subcircuit for gf180mcu_fd_sc_mcu7t5v0__aoi21_4 abstract view
.subckt gf180mcu_fd_sc_mcu7t5v0__aoi21_4 A1 A2 B ZN VDD VNW VPW VSS
.ends

* Black-box entry subcircuit for gf180mcu_fd_sc_mcu7t5v0__aoi221_2 abstract view
.subckt gf180mcu_fd_sc_mcu7t5v0__aoi221_2 A1 A2 B1 B2 C ZN VDD VNW VPW VSS
.ends

* Black-box entry subcircuit for gf180mcu_fd_sc_mcu7t5v0__clkinv_4 abstract view
.subckt gf180mcu_fd_sc_mcu7t5v0__clkinv_4 I ZN VDD VNW VPW VSS
.ends

* Black-box entry subcircuit for gf180mcu_fd_sc_mcu7t5v0__oai221_4 abstract view
.subckt gf180mcu_fd_sc_mcu7t5v0__oai221_4 A1 A2 B1 B2 C ZN VDD VNW VPW VSS
.ends

* Black-box entry subcircuit for gf180mcu_fd_sc_mcu7t5v0__aoi211_4 abstract view
.subckt gf180mcu_fd_sc_mcu7t5v0__aoi211_4 A1 A2 B C ZN VDD VNW VPW VSS
.ends

* Black-box entry subcircuit for gf180mcu_fd_sc_mcu7t5v0__dlya_2 abstract view
.subckt gf180mcu_fd_sc_mcu7t5v0__dlya_2 I Z VDD VNW VPW VSS
.ends

* Black-box entry subcircuit for gf180mcu_fd_sc_mcu7t5v0__inv_4 abstract view
.subckt gf180mcu_fd_sc_mcu7t5v0__inv_4 I ZN VDD VNW VPW VSS
.ends

* Black-box entry subcircuit for gf180mcu_fd_sc_mcu7t5v0__buf_8 abstract view
.subckt gf180mcu_fd_sc_mcu7t5v0__buf_8 I Z VDD VNW VPW VSS
.ends

* Black-box entry subcircuit for gf180mcu_fd_sc_mcu7t5v0__nor3_2 abstract view
.subckt gf180mcu_fd_sc_mcu7t5v0__nor3_2 A1 A2 A3 ZN VDD VNW VPW VSS
.ends

* Black-box entry subcircuit for gf180mcu_fd_sc_mcu7t5v0__or2_4 abstract view
.subckt gf180mcu_fd_sc_mcu7t5v0__or2_4 A1 A2 Z VDD VNW VPW VSS
.ends

* Black-box entry subcircuit for gf180mcu_fd_sc_mcu7t5v0__buf_1 abstract view
.subckt gf180mcu_fd_sc_mcu7t5v0__buf_1 I Z VDD VNW VPW VSS
.ends

* Black-box entry subcircuit for gf180mcu_fd_sc_mcu7t5v0__oai31_1 abstract view
.subckt gf180mcu_fd_sc_mcu7t5v0__oai31_1 A1 A2 A3 B ZN VDD VNW VPW VSS
.ends

* Black-box entry subcircuit for gf180mcu_fd_sc_mcu7t5v0__clkbuf_4 abstract view
.subckt gf180mcu_fd_sc_mcu7t5v0__clkbuf_4 I Z VDD VNW VPW VSS
.ends

* Black-box entry subcircuit for gf180mcu_fd_sc_mcu7t5v0__and3_4 abstract view
.subckt gf180mcu_fd_sc_mcu7t5v0__and3_4 A1 A2 A3 Z VDD VNW VPW VSS
.ends

* Black-box entry subcircuit for gf180mcu_fd_sc_mcu7t5v0__nand3_4 abstract view
.subckt gf180mcu_fd_sc_mcu7t5v0__nand3_4 A1 A2 A3 ZN VDD VNW VPW VSS
.ends

* Black-box entry subcircuit for gf180mcu_fd_sc_mcu7t5v0__clkbuf_12 abstract view
.subckt gf180mcu_fd_sc_mcu7t5v0__clkbuf_12 I Z VDD VNW VPW VSS
.ends

* Black-box entry subcircuit for gf180mcu_fd_sc_mcu7t5v0__aoi221_1 abstract view
.subckt gf180mcu_fd_sc_mcu7t5v0__aoi221_1 A1 A2 B1 B2 C ZN VDD VNW VPW VSS
.ends

* Black-box entry subcircuit for gf180mcu_fd_sc_mcu7t5v0__inv_2 abstract view
.subckt gf180mcu_fd_sc_mcu7t5v0__inv_2 I ZN VDD VNW VPW VSS
.ends

* Black-box entry subcircuit for gf180mcu_fd_sc_mcu7t5v0__or3_2 abstract view
.subckt gf180mcu_fd_sc_mcu7t5v0__or3_2 A1 A2 A3 Z VDD VNW VPW VSS
.ends

* Black-box entry subcircuit for gf180mcu_fd_sc_mcu7t5v0__mux2_4 abstract view
.subckt gf180mcu_fd_sc_mcu7t5v0__mux2_4 I0 I1 S Z VDD VNW VPW VSS
.ends

* Black-box entry subcircuit for gf180mcu_fd_sc_mcu7t5v0__aoi222_4 abstract view
.subckt gf180mcu_fd_sc_mcu7t5v0__aoi222_4 A1 A2 B1 B2 C1 C2 ZN VDD VNW VPW VSS
.ends

* Black-box entry subcircuit for gf180mcu_fd_sc_mcu7t5v0__oai221_1 abstract view
.subckt gf180mcu_fd_sc_mcu7t5v0__oai221_1 A1 A2 B1 B2 C ZN VDD VNW VPW VSS
.ends

* Black-box entry subcircuit for gf180mcu_fd_sc_mcu7t5v0__or4_1 abstract view
.subckt gf180mcu_fd_sc_mcu7t5v0__or4_1 A1 A2 A3 A4 Z VDD VNW VPW VSS
.ends

* Black-box entry subcircuit for gf180mcu_fd_sc_mcu7t5v0__clkinv_2 abstract view
.subckt gf180mcu_fd_sc_mcu7t5v0__clkinv_2 I ZN VDD VNW VPW VSS
.ends

* Black-box entry subcircuit for gf180mcu_fd_sc_mcu7t5v0__clkinv_8 abstract view
.subckt gf180mcu_fd_sc_mcu7t5v0__clkinv_8 I ZN VDD VNW VPW VSS
.ends

* Black-box entry subcircuit for gf180mcu_fd_sc_mcu7t5v0__nor4_4 abstract view
.subckt gf180mcu_fd_sc_mcu7t5v0__nor4_4 A1 A2 A3 A4 ZN VDD VNW VPW VSS
.ends

* Black-box entry subcircuit for gf180mcu_fd_sc_mcu7t5v0__aoi211_2 abstract view
.subckt gf180mcu_fd_sc_mcu7t5v0__aoi211_2 A1 A2 B C ZN VDD VNW VPW VSS
.ends

* Black-box entry subcircuit for gf180mcu_fd_sc_mcu7t5v0__nand4_1 abstract view
.subckt gf180mcu_fd_sc_mcu7t5v0__nand4_1 A1 A2 A3 A4 ZN VDD VNW VPW VSS
.ends

* Black-box entry subcircuit for gf180mcu_fd_sc_mcu7t5v0__oai222_4 abstract view
.subckt gf180mcu_fd_sc_mcu7t5v0__oai222_4 A1 A2 B1 B2 C1 C2 ZN VDD VNW VPW VSS
.ends

* Black-box entry subcircuit for gf180mcu_fd_sc_mcu7t5v0__oai22_4 abstract view
.subckt gf180mcu_fd_sc_mcu7t5v0__oai22_4 A1 A2 B1 B2 ZN VDD VNW VPW VSS
.ends

* Black-box entry subcircuit for gf180mcu_fd_sc_mcu7t5v0__oai221_2 abstract view
.subckt gf180mcu_fd_sc_mcu7t5v0__oai221_2 A1 A2 B1 B2 C ZN VDD VNW VPW VSS
.ends

* Black-box entry subcircuit for gf180mcu_fd_sc_mcu7t5v0__xnor3_1 abstract view
.subckt gf180mcu_fd_sc_mcu7t5v0__xnor3_1 A1 A2 A3 ZN VDD VNW VPW VSS
.ends

* Black-box entry subcircuit for gf180mcu_fd_sc_mcu7t5v0__oai222_2 abstract view
.subckt gf180mcu_fd_sc_mcu7t5v0__oai222_2 A1 A2 B1 B2 C1 C2 ZN VDD VNW VPW VSS
.ends

* Black-box entry subcircuit for gf180mcu_fd_sc_mcu7t5v0__and4_4 abstract view
.subckt gf180mcu_fd_sc_mcu7t5v0__and4_4 A1 A2 A3 A4 Z VDD VNW VPW VSS
.ends

* Black-box entry subcircuit for gf180mcu_fd_sc_mcu7t5v0__or2_2 abstract view
.subckt gf180mcu_fd_sc_mcu7t5v0__or2_2 A1 A2 Z VDD VNW VPW VSS
.ends

* Black-box entry subcircuit for gf180mcu_fd_sc_mcu7t5v0__xor3_1 abstract view
.subckt gf180mcu_fd_sc_mcu7t5v0__xor3_1 A1 A2 A3 Z VDD VNW VPW VSS
.ends

* Black-box entry subcircuit for gf180mcu_fd_sc_mcu7t5v0__aoi222_2 abstract view
.subckt gf180mcu_fd_sc_mcu7t5v0__aoi222_2 A1 A2 B1 B2 C1 C2 ZN VDD VNW VPW VSS
.ends

* Black-box entry subcircuit for gf180mcu_fd_sc_mcu7t5v0__clkinv_12 abstract view
.subckt gf180mcu_fd_sc_mcu7t5v0__clkinv_12 I ZN VDD VNW VPW VSS
.ends

* Black-box entry subcircuit for gf180mcu_fd_sc_mcu7t5v0__and3_2 abstract view
.subckt gf180mcu_fd_sc_mcu7t5v0__and3_2 A1 A2 A3 Z VDD VNW VPW VSS
.ends

* Black-box entry subcircuit for gf180mcu_fd_sc_mcu7t5v0__xnor2_2 abstract view
.subckt gf180mcu_fd_sc_mcu7t5v0__xnor2_2 A1 A2 ZN VDD VNW VPW VSS
.ends

* Black-box entry subcircuit for gf180mcu_fd_sc_mcu7t5v0__inv_3 abstract view
.subckt gf180mcu_fd_sc_mcu7t5v0__inv_3 I ZN VDD VNW VPW VSS
.ends

* Black-box entry subcircuit for gf180mcu_fd_sc_mcu7t5v0__xor2_4 abstract view
.subckt gf180mcu_fd_sc_mcu7t5v0__xor2_4 A1 A2 Z VDD VNW VPW VSS
.ends

* Black-box entry subcircuit for gf180mcu_fd_sc_mcu7t5v0__oai31_4 abstract view
.subckt gf180mcu_fd_sc_mcu7t5v0__oai31_4 A1 A2 A3 B ZN VDD VNW VPW VSS
.ends

* Black-box entry subcircuit for gf180mcu_fd_sc_mcu7t5v0__oai32_1 abstract view
.subckt gf180mcu_fd_sc_mcu7t5v0__oai32_1 A1 A2 A3 B1 B2 ZN VDD VNW VPW VSS
.ends

* Black-box entry subcircuit for gf180mcu_fd_sc_mcu7t5v0__oai32_2 abstract view
.subckt gf180mcu_fd_sc_mcu7t5v0__oai32_2 A1 A2 A3 B1 B2 ZN VDD VNW VPW VSS
.ends

* Black-box entry subcircuit for gf180mcu_fd_sc_mcu7t5v0__tiel abstract view
.subckt gf180mcu_fd_sc_mcu7t5v0__tiel ZN VDD VNW VPW VSS
.ends

* Black-box entry subcircuit for gf180mcu_fd_sc_mcu7t5v0__nor4_1 abstract view
.subckt gf180mcu_fd_sc_mcu7t5v0__nor4_1 A1 A2 A3 A4 ZN VDD VNW VPW VSS
.ends

* Black-box entry subcircuit for gf180mcu_fd_sc_mcu7t5v0__dlya_1 abstract view
.subckt gf180mcu_fd_sc_mcu7t5v0__dlya_1 I Z VDD VNW VPW VSS
.ends

* Black-box entry subcircuit for gf180mcu_fd_sc_mcu7t5v0__inv_8 abstract view
.subckt gf180mcu_fd_sc_mcu7t5v0__inv_8 I ZN VDD VNW VPW VSS
.ends

* Black-box entry subcircuit for gf180mcu_fd_sc_mcu7t5v0__xor3_2 abstract view
.subckt gf180mcu_fd_sc_mcu7t5v0__xor3_2 A1 A2 A3 Z VDD VNW VPW VSS
.ends

.subckt core0 dbg_pc[0] dbg_pc[10] dbg_pc[11] dbg_pc[12] dbg_pc[13] dbg_pc[14] dbg_pc[15]
+ dbg_pc[1] dbg_pc[2] dbg_pc[3] dbg_pc[4] dbg_pc[5] dbg_pc[6] dbg_pc[7] dbg_pc[8]
+ dbg_pc[9] dbg_r0[0] dbg_r0[10] dbg_r0[11] dbg_r0[12] dbg_r0[13] dbg_r0[14] dbg_r0[15]
+ dbg_r0[1] dbg_r0[2] dbg_r0[3] dbg_r0[4] dbg_r0[5] dbg_r0[6] dbg_r0[7] dbg_r0[8]
+ dbg_r0[9] i_clk i_core_int_sreg[0] i_core_int_sreg[10] i_core_int_sreg[11] i_core_int_sreg[12]
+ i_core_int_sreg[13] i_core_int_sreg[14] i_core_int_sreg[15] i_core_int_sreg[1] i_core_int_sreg[2]
+ i_core_int_sreg[3] i_core_int_sreg[4] i_core_int_sreg[5] i_core_int_sreg[6] i_core_int_sreg[7]
+ i_core_int_sreg[8] i_core_int_sreg[9] i_disable i_irq i_mc_core_int i_mem_ack i_mem_data[0]
+ i_mem_data[10] i_mem_data[11] i_mem_data[12] i_mem_data[13] i_mem_data[14] i_mem_data[15]
+ i_mem_data[1] i_mem_data[2] i_mem_data[3] i_mem_data[4] i_mem_data[5] i_mem_data[6]
+ i_mem_data[7] i_mem_data[8] i_mem_data[9] i_mem_exception i_req_data[0] i_req_data[10]
+ i_req_data[11] i_req_data[12] i_req_data[13] i_req_data[14] i_req_data[15] i_req_data[16]
+ i_req_data[17] i_req_data[18] i_req_data[19] i_req_data[1] i_req_data[20] i_req_data[21]
+ i_req_data[22] i_req_data[23] i_req_data[24] i_req_data[25] i_req_data[26] i_req_data[27]
+ i_req_data[28] i_req_data[29] i_req_data[2] i_req_data[30] i_req_data[31] i_req_data[3]
+ i_req_data[4] i_req_data[5] i_req_data[6] i_req_data[7] i_req_data[8] i_req_data[9]
+ i_req_data_valid i_rst o_c_data_page o_c_instr_long o_c_instr_page o_icache_flush
+ o_instr_long_addr[0] o_instr_long_addr[1] o_instr_long_addr[2] o_instr_long_addr[3]
+ o_instr_long_addr[4] o_instr_long_addr[5] o_instr_long_addr[6] o_instr_long_addr[7]
+ o_mem_addr[0] o_mem_addr[10] o_mem_addr[11] o_mem_addr[12] o_mem_addr[13] o_mem_addr[14]
+ o_mem_addr[15] o_mem_addr[1] o_mem_addr[2] o_mem_addr[3] o_mem_addr[4] o_mem_addr[5]
+ o_mem_addr[6] o_mem_addr[7] o_mem_addr[8] o_mem_addr[9] o_mem_addr_high[0] o_mem_addr_high[1]
+ o_mem_addr_high[2] o_mem_addr_high[3] o_mem_addr_high[4] o_mem_addr_high[5] o_mem_addr_high[6]
+ o_mem_data[0] o_mem_data[10] o_mem_data[11] o_mem_data[12] o_mem_data[13] o_mem_data[14]
+ o_mem_data[15] o_mem_data[1] o_mem_data[2] o_mem_data[3] o_mem_data[4] o_mem_data[5]
+ o_mem_data[6] o_mem_data[7] o_mem_data[8] o_mem_data[9] o_mem_long o_mem_req o_mem_sel[0]
+ o_mem_sel[1] o_mem_we o_req_active o_req_addr[0] o_req_addr[10] o_req_addr[11] o_req_addr[12]
+ o_req_addr[13] o_req_addr[14] o_req_addr[15] o_req_addr[1] o_req_addr[2] o_req_addr[3]
+ o_req_addr[4] o_req_addr[5] o_req_addr[6] o_req_addr[7] o_req_addr[8] o_req_addr[9]
+ o_req_ppl_submit sr_bus_addr[0] sr_bus_addr[10] sr_bus_addr[11] sr_bus_addr[12]
+ sr_bus_addr[13] sr_bus_addr[14] sr_bus_addr[15] sr_bus_addr[1] sr_bus_addr[2] sr_bus_addr[3]
+ sr_bus_addr[4] sr_bus_addr[5] sr_bus_addr[6] sr_bus_addr[7] sr_bus_addr[8] sr_bus_addr[9]
+ sr_bus_data_o[0] sr_bus_data_o[10] sr_bus_data_o[11] sr_bus_data_o[12] sr_bus_data_o[13]
+ sr_bus_data_o[14] sr_bus_data_o[15] sr_bus_data_o[1] sr_bus_data_o[2] sr_bus_data_o[3]
+ sr_bus_data_o[4] sr_bus_data_o[5] sr_bus_data_o[6] sr_bus_data_o[7] sr_bus_data_o[8]
+ sr_bus_data_o[9] sr_bus_we vccd1 vssd1 o_mem_addr_high[7]
XFILLER_0_185_68 vccd1 vccd1 vssd1 vssd1 gf180mcu_fd_sc_mcu7t5v0__fill_2
XFILLER_0_207_751 vccd1 vccd1 vssd1 vssd1 gf180mcu_fd_sc_mcu7t5v0__fill_2
XANTENNA__6209__A2 _1833_ vccd1 vccd1 vssd1 vssd1 gf180mcu_fd_sc_mcu7t5v0__antenna
XFILLER_0_213_209 vccd1 vccd1 vssd1 vssd1 gf180mcu_fd_sc_mcu7t5v0__fill_1
XFILLER_0_234_570 vccd1 vccd1 vssd1 vssd1 gf180mcu_fd_sc_mcu7t5v0__fill_2
XFILLER_0_179_603 vccd1 vccd1 vssd1 vssd1 gf180mcu_fd_sc_mcu7t5v0__fill_1
XFILLER_0_222_721 vccd1 vccd1 vssd1 vssd1 gf180mcu_fd_sc_mcu7t5v0__fill_1
XTAP_TAPCELL_ROW_2_538 vccd1 vssd1 gf180mcu_fd_sc_mcu7t5v0__filltie
XFILLER_0_118_84 vccd1 vccd1 vssd1 vssd1 gf180mcu_fd_sc_mcu7t5v0__fillcap_4
XFILLER_0_222_732 vccd1 vccd1 vssd1 vssd1 gf180mcu_fd_sc_mcu7t5v0__fill_1
X_7963_ core_0.execute.rf.reg_outputs\[5\]\[5\] _3679_ _3677_ _3681_ vccd1 vccd1 vssd1
+ vssd1 gf180mcu_fd_sc_mcu7t5v0__oai21_1
XANTENNA__5968__A1 _1897_ vccd1 vccd1 vssd1 vssd1 gf180mcu_fd_sc_mcu7t5v0__antenna
XFILLER_0_222_765 vccd1 vccd1 vssd1 vssd1 gf180mcu_fd_sc_mcu7t5v0__fill_2
XANTENNA__8126__B _3771_ vccd1 vccd1 vssd1 vssd1 gf180mcu_fd_sc_mcu7t5v0__antenna
XTAP_TAPCELL_ROW_38_968 vccd1 vssd1 gf180mcu_fd_sc_mcu7t5v0__filltie
X_6914_ _2510_ _2845_ vccd1 vccd1 vssd1 vssd1 gf180mcu_fd_sc_mcu7t5v0__clkinv_1
X_7894_ _3451_ _3628_ _3640_ _0387_ vccd1 vccd1 vssd1 vssd1 gf180mcu_fd_sc_mcu7t5v0__aoi21_1
XFILLER_0_76_111 vccd1 vccd1 vssd1 vssd1 gf180mcu_fd_sc_mcu7t5v0__fill_2
XFILLER_0_178_179 vccd1 vccd1 vssd1 vssd1 gf180mcu_fd_sc_mcu7t5v0__fill_1
XANTENNA__7709__A2 _3526_ vccd1 vccd1 vssd1 vssd1 gf180mcu_fd_sc_mcu7t5v0__antenna
XTAP_TAPCELL_ROW_159_2418 vccd1 vssd1 gf180mcu_fd_sc_mcu7t5v0__filltie
XANTENNA__7965__B _3677_ vccd1 vccd1 vssd1 vssd1 gf180mcu_fd_sc_mcu7t5v0__antenna
XFILLER_0_9_400 vccd1 vccd1 vssd1 vssd1 gf180mcu_fd_sc_mcu7t5v0__fill_2
XFILLER_0_65_807 vccd1 vccd1 vssd1 vssd1 gf180mcu_fd_sc_mcu7t5v0__fill_1
X_6845_ _1405_ net227 _2683_ _2778_ vccd1 vccd1 vssd1 vssd1 gf180mcu_fd_sc_mcu7t5v0__and3_1
X_9633_ _0643_ clknet_leaf_96_i_clk net192 vccd1 vccd1 vssd1 vssd1 gf180mcu_fd_sc_mcu7t5v0__dffq_4
XFILLER_0_175_842 vccd1 vccd1 vssd1 vssd1 gf180mcu_fd_sc_mcu7t5v0__fillcap_16
XFILLER_0_9_422 vccd1 vccd1 vssd1 vssd1 gf180mcu_fd_sc_mcu7t5v0__fillcap_8
XFILLER_0_76_166 vccd1 vccd1 vssd1 vssd1 gf180mcu_fd_sc_mcu7t5v0__fill_2
XFILLER_0_64_317 vccd1 vccd1 vssd1 vssd1 gf180mcu_fd_sc_mcu7t5v0__fill_2
XFILLER_0_76_177 vccd1 vccd1 vssd1 vssd1 gf180mcu_fd_sc_mcu7t5v0__fill_2
X_9564_ _0574_ clknet_leaf_81_i_clk core_0.execute.sreg_irq_pc.o_d\[12\] vccd1 vccd1
+ vssd1 vssd1 gf180mcu_fd_sc_mcu7t5v0__dffq_1
XFILLER_0_190_801 vccd1 vccd1 vssd1 vssd1 gf180mcu_fd_sc_mcu7t5v0__fillcap_4
XFILLER_0_92_648 vccd1 vccd1 vssd1 vssd1 gf180mcu_fd_sc_mcu7t5v0__fill_2
XFILLER_0_147_566 vccd1 vccd1 vssd1 vssd1 gf180mcu_fd_sc_mcu7t5v0__fillcap_8
X_6776_ _2708_ _2709_ vccd1 vccd1 vssd1 vssd1 gf180mcu_fd_sc_mcu7t5v0__buf_4
XANTENNA__6393__A1 _2354_ vccd1 vccd1 vssd1 vssd1 gf180mcu_fd_sc_mcu7t5v0__antenna
XFILLER_0_119_268 vccd1 vccd1 vssd1 vssd1 gf180mcu_fd_sc_mcu7t5v0__fill_2
XFILLER_0_107_419 vccd1 vccd1 vssd1 vssd1 gf180mcu_fd_sc_mcu7t5v0__fill_1
X_8515_ net85 _4040_ _4101_ vccd1 vccd1 vssd1 vssd1 gf180mcu_fd_sc_mcu7t5v0__nand2_1
XFILLER_0_147_599 vccd1 vccd1 vssd1 vssd1 gf180mcu_fd_sc_mcu7t5v0__fillcap_4
X_5727_ _1714_ _1722_ _0138_ vccd1 vccd1 vssd1 vssd1 gf180mcu_fd_sc_mcu7t5v0__nor2_1
XANTENNA__4943__A2 _1046_ vccd1 vccd1 vssd1 vssd1 gf180mcu_fd_sc_mcu7t5v0__antenna
X_9495_ _0505_ clknet_leaf_18_i_clk net92 vccd1 vccd1 vssd1 vssd1 gf180mcu_fd_sc_mcu7t5v0__dffq_4
XFILLER_0_134_238 vccd1 vccd1 vssd1 vssd1 gf180mcu_fd_sc_mcu7t5v0__fillcap_4
XFILLER_0_18_789 vccd1 vccd1 vssd1 vssd1 gf180mcu_fd_sc_mcu7t5v0__fill_2
XANTENNA__8134__A2 _3758_ vccd1 vccd1 vssd1 vssd1 gf180mcu_fd_sc_mcu7t5v0__antenna
XFILLER_0_162_558 vccd1 vccd1 vssd1 vssd1 gf180mcu_fd_sc_mcu7t5v0__fillcap_4
X_8446_ _2136_ _4039_ vccd1 vccd1 vssd1 vssd1 gf180mcu_fd_sc_mcu7t5v0__buf_3
XFILLER_0_72_383 vccd1 vccd1 vssd1 vssd1 gf180mcu_fd_sc_mcu7t5v0__fill_2
XFILLER_0_32_225 vccd1 vccd1 vssd1 vssd1 gf180mcu_fd_sc_mcu7t5v0__fillcap_16
XFILLER_0_60_534 vccd1 vccd1 vssd1 vssd1 gf180mcu_fd_sc_mcu7t5v0__fill_2
X_5658_ _1628_ _1665_ _1666_ _0125_ vccd1 vccd1 vssd1 vssd1 gf180mcu_fd_sc_mcu7t5v0__oai21_1
XANTENNA__8796__B _4324_ vccd1 vccd1 vssd1 vssd1 gf180mcu_fd_sc_mcu7t5v0__antenna
XFILLER_0_143_772 vccd1 vccd1 vssd1 vssd1 gf180mcu_fd_sc_mcu7t5v0__fillcap_32
XFILLER_0_32_247 vccd1 vccd1 vssd1 vssd1 gf180mcu_fd_sc_mcu7t5v0__fillcap_32
XTAP_TAPCELL_ROW_211_3040 vccd1 vssd1 gf180mcu_fd_sc_mcu7t5v0__filltie
XFILLER_0_102_102 vccd1 vccd1 vssd1 vssd1 gf180mcu_fd_sc_mcu7t5v0__fill_1
XANTENNA__7893__A1 core_0.execute.rf.reg_outputs\[7\]\[8\] vccd1 vccd1 vssd1 vssd1
+ gf180mcu_fd_sc_mcu7t5v0__antenna
XFILLER_0_5_694 vccd1 vccd1 vssd1 vssd1 gf180mcu_fd_sc_mcu7t5v0__fillcap_4
X_4609_ _0794_ _0799_ _0800_ vccd1 vccd1 vssd1 vssd1 gf180mcu_fd_sc_mcu7t5v0__nand2_2
XFILLER_0_170_591 vccd1 vccd1 vssd1 vssd1 gf180mcu_fd_sc_mcu7t5v0__fillcap_4
X_8377_ _3802_ _3989_ _3990_ vccd1 vccd1 vssd1 vssd1 gf180mcu_fd_sc_mcu7t5v0__nor2_1
X_5589_ _1465_ core_0.fetch.submitable _1625_ _0097_ vccd1 vccd1 vssd1 vssd1 gf180mcu_fd_sc_mcu7t5v0__oai21_1
XFILLER_0_60_589 vccd1 vccd1 vssd1 vssd1 gf180mcu_fd_sc_mcu7t5v0__fill_2
X_7328_ _1338_ _1988_ _1285_ _3249_ vccd1 vccd1 vssd1 vssd1 gf180mcu_fd_sc_mcu7t5v0__aoi21_2
XFILLER_0_102_168 vccd1 vccd1 vssd1 vssd1 gf180mcu_fd_sc_mcu7t5v0__fill_2
XFILLER_0_229_342 vccd1 vccd1 vssd1 vssd1 gf180mcu_fd_sc_mcu7t5v0__fillcap_8
XFILLER_0_217_504 vccd1 vccd1 vssd1 vssd1 gf180mcu_fd_sc_mcu7t5v0__fillcap_4
XANTENNA__6448__A2 _2395_ vccd1 vccd1 vssd1 vssd1 gf180mcu_fd_sc_mcu7t5v0__antenna
XANTENNA__7645__A1 core_0.ew_reg_ie\[13\] vccd1 vccd1 vssd1 vssd1 gf180mcu_fd_sc_mcu7t5v0__antenna
XTAP_TAPCELL_ROW_183_2703 vccd1 vssd1 gf180mcu_fd_sc_mcu7t5v0__filltie
X_7259_ _2564_ _2844_ _3181_ _3182_ vccd1 vccd1 vssd1 vssd1 gf180mcu_fd_sc_mcu7t5v0__aoi21_1
XFILLER_0_217_526 vccd1 vccd1 vssd1 vssd1 gf180mcu_fd_sc_mcu7t5v0__fillcap_4
XTAP_TAPCELL_ROW_183_2714 vccd1 vssd1 gf180mcu_fd_sc_mcu7t5v0__filltie
XFILLER_0_244_323 vccd1 vccd1 vssd1 vssd1 gf180mcu_fd_sc_mcu7t5v0__fill_2
XANTENNA__7948__A2 _3394_ vccd1 vccd1 vssd1 vssd1 gf180mcu_fd_sc_mcu7t5v0__antenna
XFILLER_0_213_743 vccd1 vccd1 vssd1 vssd1 gf180mcu_fd_sc_mcu7t5v0__fillcap_4
XFILLER_0_197_422 vccd1 vccd1 vssd1 vssd1 gf180mcu_fd_sc_mcu7t5v0__fill_2
XFILLER_0_213_754 vccd1 vccd1 vssd1 vssd1 gf180mcu_fd_sc_mcu7t5v0__fill_2
XANTENNA__5959__A1 _1772_ vccd1 vccd1 vssd1 vssd1 gf180mcu_fd_sc_mcu7t5v0__antenna
XTAP_TAPCELL_ROW_222_3180 vccd1 vssd1 gf180mcu_fd_sc_mcu7t5v0__filltie
XANTENNA__8036__B _3718_ vccd1 vccd1 vssd1 vssd1 gf180mcu_fd_sc_mcu7t5v0__antenna
XFILLER_0_169_135 vccd1 vccd1 vssd1 vssd1 gf180mcu_fd_sc_mcu7t5v0__fill_2
XFILLER_0_197_455 vccd1 vccd1 vssd1 vssd1 gf180mcu_fd_sc_mcu7t5v0__fillcap_8
XFILLER_0_169_146 vccd1 vccd1 vssd1 vssd1 gf180mcu_fd_sc_mcu7t5v0__fill_2
XFILLER_0_67_100 vccd1 vccd1 vssd1 vssd1 gf180mcu_fd_sc_mcu7t5v0__fill_1
XANTENNA__4631__A1 core_0.execute.rf.reg_outputs\[12\]\[6\] vccd1 vccd1 vssd1 vssd1
+ gf180mcu_fd_sc_mcu7t5v0__antenna
XFILLER_0_95_431 vccd1 vccd1 vssd1 vssd1 gf180mcu_fd_sc_mcu7t5v0__fill_2
XANTENNA__4631__B2 core_0.execute.rf.reg_outputs\[13\]\[6\] vccd1 vccd1 vssd1 vssd1
+ gf180mcu_fd_sc_mcu7t5v0__antenna
XFILLER_0_68_667 vccd1 vccd1 vssd1 vssd1 gf180mcu_fd_sc_mcu7t5v0__fill_2
XANTENNA__7875__B _3621_ vccd1 vccd1 vssd1 vssd1 gf180mcu_fd_sc_mcu7t5v0__antenna
XFILLER_0_178_691 vccd1 vccd1 vssd1 vssd1 gf180mcu_fd_sc_mcu7t5v0__fillcap_4
XFILLER_0_166_831 vccd1 vccd1 vssd1 vssd1 gf180mcu_fd_sc_mcu7t5v0__fill_1
XFILLER_0_83_604 vccd1 vccd1 vssd1 vssd1 gf180mcu_fd_sc_mcu7t5v0__fill_1
XFILLER_0_138_522 vccd1 vccd1 vssd1 vssd1 gf180mcu_fd_sc_mcu7t5v0__fill_2
XFILLER_0_83_615 vccd1 vccd1 vssd1 vssd1 gf180mcu_fd_sc_mcu7t5v0__fillcap_8
XTAP_TAPCELL_ROW_103_1749 vccd1 vssd1 gf180mcu_fd_sc_mcu7t5v0__filltie
XTAP_TAPCELL_ROW_140_2190 vccd1 vssd1 gf180mcu_fd_sc_mcu7t5v0__filltie
XANTENNA__8373__A2 _3886_ vccd1 vccd1 vssd1 vssd1 gf180mcu_fd_sc_mcu7t5v0__antenna
XTAP_TAPCELL_ROW_194_2843 vccd1 vssd1 gf180mcu_fd_sc_mcu7t5v0__filltie
XFILLER_0_181_801 vccd1 vccd1 vssd1 vssd1 gf180mcu_fd_sc_mcu7t5v0__fill_2
XANTENNA__5187__A2 _1256_ vccd1 vccd1 vssd1 vssd1 gf180mcu_fd_sc_mcu7t5v0__antenna
XFILLER_0_165_352 vccd1 vccd1 vssd1 vssd1 gf180mcu_fd_sc_mcu7t5v0__fillcap_8
XFILLER_0_153_514 vccd1 vccd1 vssd1 vssd1 gf180mcu_fd_sc_mcu7t5v0__fillcap_8
XFILLER_0_125_216 vccd1 vccd1 vssd1 vssd1 gf180mcu_fd_sc_mcu7t5v0__fill_1
XANTENNA__4934__A2 _1060_ vccd1 vccd1 vssd1 vssd1 gf180mcu_fd_sc_mcu7t5v0__antenna