* NGSPICE file created from core1.ext - technology: gf180mcuD

* Black-box entry subcircuit for gf180mcu_fd_sc_mcu7t5v0__fill_2 abstract view
.subckt gf180mcu_fd_sc_mcu7t5v0__fill_2 VDD VNW VPW VSS
.ends

* Black-box entry subcircuit for gf180mcu_fd_sc_mcu7t5v0__antenna abstract view
.subckt gf180mcu_fd_sc_mcu7t5v0__antenna I VDD VNW VPW VSS
.ends

* Black-box entry subcircuit for gf180mcu_fd_sc_mcu7t5v0__fill_1 abstract view
.subckt gf180mcu_fd_sc_mcu7t5v0__fill_1 VDD VNW VPW VSS
.ends

* Black-box entry subcircuit for gf180mcu_fd_sc_mcu7t5v0__filltie abstract view
.subckt gf180mcu_fd_sc_mcu7t5v0__filltie VDD VSS
.ends

* Black-box entry subcircuit for gf180mcu_fd_sc_mcu7t5v0__fillcap_4 abstract view
.subckt gf180mcu_fd_sc_mcu7t5v0__fillcap_4 VDD VNW VPW VSS
.ends

* Black-box entry subcircuit for gf180mcu_fd_sc_mcu7t5v0__dffq_1 abstract view
.subckt gf180mcu_fd_sc_mcu7t5v0__dffq_1 D CLK Q VDD VNW VPW VSS
.ends

* Black-box entry subcircuit for gf180mcu_fd_sc_mcu7t5v0__fillcap_16 abstract view
.subckt gf180mcu_fd_sc_mcu7t5v0__fillcap_16 VDD VNW VPW VSS
.ends

* Black-box entry subcircuit for gf180mcu_fd_sc_mcu7t5v0__oai21_1 abstract view
.subckt gf180mcu_fd_sc_mcu7t5v0__oai21_1 A1 A2 B ZN VDD VNW VPW VSS
.ends

* Black-box entry subcircuit for gf180mcu_fd_sc_mcu7t5v0__fillcap_8 abstract view
.subckt gf180mcu_fd_sc_mcu7t5v0__fillcap_8 VDD VNW VPW VSS
.ends

* Black-box entry subcircuit for gf180mcu_fd_sc_mcu7t5v0__fillcap_32 abstract view
.subckt gf180mcu_fd_sc_mcu7t5v0__fillcap_32 VDD VNW VPW VSS
.ends

* Black-box entry subcircuit for gf180mcu_fd_sc_mcu7t5v0__clkinv_2 abstract view
.subckt gf180mcu_fd_sc_mcu7t5v0__clkinv_2 I ZN VDD VNW VPW VSS
.ends

* Black-box entry subcircuit for gf180mcu_fd_sc_mcu7t5v0__mux2_2 abstract view
.subckt gf180mcu_fd_sc_mcu7t5v0__mux2_2 I0 I1 S Z VDD VNW VPW VSS
.ends

* Black-box entry subcircuit for gf180mcu_fd_sc_mcu7t5v0__oai211_4 abstract view
.subckt gf180mcu_fd_sc_mcu7t5v0__oai211_4 A1 A2 B C ZN VDD VNW VPW VSS
.ends

* Black-box entry subcircuit for gf180mcu_fd_sc_mcu7t5v0__fillcap_64 abstract view
.subckt gf180mcu_fd_sc_mcu7t5v0__fillcap_64 VDD VNW VPW VSS
.ends

* Black-box entry subcircuit for gf180mcu_fd_sc_mcu7t5v0__nand2_1 abstract view
.subckt gf180mcu_fd_sc_mcu7t5v0__nand2_1 A1 A2 ZN VDD VNW VPW VSS
.ends

* Black-box entry subcircuit for gf180mcu_fd_sc_mcu7t5v0__clkbuf_1 abstract view
.subckt gf180mcu_fd_sc_mcu7t5v0__clkbuf_1 I Z VDD VNW VPW VSS
.ends

* Black-box entry subcircuit for gf180mcu_fd_sc_mcu7t5v0__nor2_1 abstract view
.subckt gf180mcu_fd_sc_mcu7t5v0__nor2_1 A1 A2 ZN VDD VNW VPW VSS
.ends

* Black-box entry subcircuit for gf180mcu_fd_sc_mcu7t5v0__aoi21_1 abstract view
.subckt gf180mcu_fd_sc_mcu7t5v0__aoi21_1 A1 A2 B ZN VDD VNW VPW VSS
.ends

* Black-box entry subcircuit for gf180mcu_fd_sc_mcu7t5v0__clkbuf_2 abstract view
.subckt gf180mcu_fd_sc_mcu7t5v0__clkbuf_2 I Z VDD VNW VPW VSS
.ends

* Black-box entry subcircuit for gf180mcu_fd_sc_mcu7t5v0__clkbuf_16 abstract view
.subckt gf180mcu_fd_sc_mcu7t5v0__clkbuf_16 I Z VDD VNW VPW VSS
.ends

* Black-box entry subcircuit for gf180mcu_fd_sc_mcu7t5v0__nand3_4 abstract view
.subckt gf180mcu_fd_sc_mcu7t5v0__nand3_4 A1 A2 A3 ZN VDD VNW VPW VSS
.ends

* Black-box entry subcircuit for gf180mcu_fd_sc_mcu7t5v0__xor2_1 abstract view
.subckt gf180mcu_fd_sc_mcu7t5v0__xor2_1 A1 A2 Z VDD VNW VPW VSS
.ends

* Black-box entry subcircuit for gf180mcu_fd_sc_mcu7t5v0__dffq_4 abstract view
.subckt gf180mcu_fd_sc_mcu7t5v0__dffq_4 D CLK Q VDD VNW VPW VSS
.ends

* Black-box entry subcircuit for gf180mcu_fd_sc_mcu7t5v0__oai22_1 abstract view
.subckt gf180mcu_fd_sc_mcu7t5v0__oai22_1 A1 A2 B1 B2 ZN VDD VNW VPW VSS
.ends

* Black-box entry subcircuit for gf180mcu_fd_sc_mcu7t5v0__aoi211_4 abstract view
.subckt gf180mcu_fd_sc_mcu7t5v0__aoi211_4 A1 A2 B C ZN VDD VNW VPW VSS
.ends

* Black-box entry subcircuit for gf180mcu_fd_sc_mcu7t5v0__or2_1 abstract view
.subckt gf180mcu_fd_sc_mcu7t5v0__or2_1 A1 A2 Z VDD VNW VPW VSS
.ends

* Black-box entry subcircuit for gf180mcu_fd_sc_mcu7t5v0__clkinv_1 abstract view
.subckt gf180mcu_fd_sc_mcu7t5v0__clkinv_1 I ZN VDD VNW VPW VSS
.ends

* Black-box entry subcircuit for gf180mcu_fd_sc_mcu7t5v0__dffq_2 abstract view
.subckt gf180mcu_fd_sc_mcu7t5v0__dffq_2 D CLK Q VDD VNW VPW VSS
.ends

* Black-box entry subcircuit for gf180mcu_fd_sc_mcu7t5v0__endcap abstract view
.subckt gf180mcu_fd_sc_mcu7t5v0__endcap VDD VSS
.ends

* Black-box entry subcircuit for gf180mcu_fd_sc_mcu7t5v0__nor4_4 abstract view
.subckt gf180mcu_fd_sc_mcu7t5v0__nor4_4 A1 A2 A3 A4 ZN VDD VNW VPW VSS
.ends

* Black-box entry subcircuit for gf180mcu_fd_sc_mcu7t5v0__nand4_1 abstract view
.subckt gf180mcu_fd_sc_mcu7t5v0__nand4_1 A1 A2 A3 A4 ZN VDD VNW VPW VSS
.ends

* Black-box entry subcircuit for gf180mcu_fd_sc_mcu7t5v0__aoi211_1 abstract view
.subckt gf180mcu_fd_sc_mcu7t5v0__aoi211_1 A1 A2 B C ZN VDD VNW VPW VSS
.ends

* Black-box entry subcircuit for gf180mcu_fd_sc_mcu7t5v0__nand3_1 abstract view
.subckt gf180mcu_fd_sc_mcu7t5v0__nand3_1 A1 A2 A3 ZN VDD VNW VPW VSS
.ends

* Black-box entry subcircuit for gf180mcu_fd_sc_mcu7t5v0__or4_1 abstract view
.subckt gf180mcu_fd_sc_mcu7t5v0__or4_1 A1 A2 A3 A4 Z VDD VNW VPW VSS
.ends

* Black-box entry subcircuit for gf180mcu_fd_sc_mcu7t5v0__oai21_2 abstract view
.subckt gf180mcu_fd_sc_mcu7t5v0__oai21_2 A1 A2 B ZN VDD VNW VPW VSS
.ends

* Black-box entry subcircuit for gf180mcu_fd_sc_mcu7t5v0__nand2_2 abstract view
.subckt gf180mcu_fd_sc_mcu7t5v0__nand2_2 A1 A2 ZN VDD VNW VPW VSS
.ends

* Black-box entry subcircuit for gf180mcu_fd_sc_mcu7t5v0__nor3_2 abstract view
.subckt gf180mcu_fd_sc_mcu7t5v0__nor3_2 A1 A2 A3 ZN VDD VNW VPW VSS
.ends

* Black-box entry subcircuit for gf180mcu_fd_sc_mcu7t5v0__and2_1 abstract view
.subckt gf180mcu_fd_sc_mcu7t5v0__and2_1 A1 A2 Z VDD VNW VPW VSS
.ends

* Black-box entry subcircuit for gf180mcu_fd_sc_mcu7t5v0__aoi21_2 abstract view
.subckt gf180mcu_fd_sc_mcu7t5v0__aoi21_2 A1 A2 B ZN VDD VNW VPW VSS
.ends

* Black-box entry subcircuit for gf180mcu_fd_sc_mcu7t5v0__aoi22_2 abstract view
.subckt gf180mcu_fd_sc_mcu7t5v0__aoi22_2 A1 A2 B1 B2 ZN VDD VNW VPW VSS
.ends

* Black-box entry subcircuit for gf180mcu_fd_sc_mcu7t5v0__oai31_2 abstract view
.subckt gf180mcu_fd_sc_mcu7t5v0__oai31_2 A1 A2 A3 B ZN VDD VNW VPW VSS
.ends

* Black-box entry subcircuit for gf180mcu_fd_sc_mcu7t5v0__nor3_4 abstract view
.subckt gf180mcu_fd_sc_mcu7t5v0__nor3_4 A1 A2 A3 ZN VDD VNW VPW VSS
.ends

* Black-box entry subcircuit for gf180mcu_fd_sc_mcu7t5v0__nor2_2 abstract view
.subckt gf180mcu_fd_sc_mcu7t5v0__nor2_2 A1 A2 ZN VDD VNW VPW VSS
.ends

* Black-box entry subcircuit for gf180mcu_fd_sc_mcu7t5v0__buf_3 abstract view
.subckt gf180mcu_fd_sc_mcu7t5v0__buf_3 I Z VDD VNW VPW VSS
.ends

* Black-box entry subcircuit for gf180mcu_fd_sc_mcu7t5v0__clkbuf_3 abstract view
.subckt gf180mcu_fd_sc_mcu7t5v0__clkbuf_3 I Z VDD VNW VPW VSS
.ends

* Black-box entry subcircuit for gf180mcu_fd_sc_mcu7t5v0__xor3_1 abstract view
.subckt gf180mcu_fd_sc_mcu7t5v0__xor3_1 A1 A2 A3 Z VDD VNW VPW VSS
.ends

* Black-box entry subcircuit for gf180mcu_fd_sc_mcu7t5v0__nor3_1 abstract view
.subckt gf180mcu_fd_sc_mcu7t5v0__nor3_1 A1 A2 A3 ZN VDD VNW VPW VSS
.ends

* Black-box entry subcircuit for gf180mcu_fd_sc_mcu7t5v0__oai221_1 abstract view
.subckt gf180mcu_fd_sc_mcu7t5v0__oai221_1 A1 A2 B1 B2 C ZN VDD VNW VPW VSS
.ends

* Black-box entry subcircuit for gf180mcu_fd_sc_mcu7t5v0__oai21_4 abstract view
.subckt gf180mcu_fd_sc_mcu7t5v0__oai21_4 A1 A2 B ZN VDD VNW VPW VSS
.ends

* Black-box entry subcircuit for gf180mcu_fd_sc_mcu7t5v0__nand3_2 abstract view
.subckt gf180mcu_fd_sc_mcu7t5v0__nand3_2 A1 A2 A3 ZN VDD VNW VPW VSS
.ends

* Black-box entry subcircuit for gf180mcu_fd_sc_mcu7t5v0__nor2_4 abstract view
.subckt gf180mcu_fd_sc_mcu7t5v0__nor2_4 A1 A2 ZN VDD VNW VPW VSS
.ends

* Black-box entry subcircuit for gf180mcu_fd_sc_mcu7t5v0__buf_8 abstract view
.subckt gf180mcu_fd_sc_mcu7t5v0__buf_8 I Z VDD VNW VPW VSS
.ends

* Black-box entry subcircuit for gf180mcu_fd_sc_mcu7t5v0__buf_1 abstract view
.subckt gf180mcu_fd_sc_mcu7t5v0__buf_1 I Z VDD VNW VPW VSS
.ends

* Black-box entry subcircuit for gf180mcu_fd_sc_mcu7t5v0__nand2_4 abstract view
.subckt gf180mcu_fd_sc_mcu7t5v0__nand2_4 A1 A2 ZN VDD VNW VPW VSS
.ends

* Black-box entry subcircuit for gf180mcu_fd_sc_mcu7t5v0__nand4_4 abstract view
.subckt gf180mcu_fd_sc_mcu7t5v0__nand4_4 A1 A2 A3 A4 ZN VDD VNW VPW VSS
.ends

* Black-box entry subcircuit for gf180mcu_fd_sc_mcu7t5v0__aoi22_1 abstract view
.subckt gf180mcu_fd_sc_mcu7t5v0__aoi22_1 A1 A2 B1 B2 ZN VDD VNW VPW VSS
.ends

* Black-box entry subcircuit for gf180mcu_fd_sc_mcu7t5v0__inv_1 abstract view
.subckt gf180mcu_fd_sc_mcu7t5v0__inv_1 I ZN VDD VNW VPW VSS
.ends

* Black-box entry subcircuit for gf180mcu_fd_sc_mcu7t5v0__xor2_2 abstract view
.subckt gf180mcu_fd_sc_mcu7t5v0__xor2_2 A1 A2 Z VDD VNW VPW VSS
.ends

* Black-box entry subcircuit for gf180mcu_fd_sc_mcu7t5v0__mux4_4 abstract view
.subckt gf180mcu_fd_sc_mcu7t5v0__mux4_4 I0 I1 I2 I3 S0 S1 Z VDD VNW VPW VSS
.ends

* Black-box entry subcircuit for gf180mcu_fd_sc_mcu7t5v0__dlyb_1 abstract view
.subckt gf180mcu_fd_sc_mcu7t5v0__dlyb_1 I Z VDD VNW VPW VSS
.ends

* Black-box entry subcircuit for gf180mcu_fd_sc_mcu7t5v0__oai211_1 abstract view
.subckt gf180mcu_fd_sc_mcu7t5v0__oai211_1 A1 A2 B C ZN VDD VNW VPW VSS
.ends

* Black-box entry subcircuit for gf180mcu_fd_sc_mcu7t5v0__clkbuf_8 abstract view
.subckt gf180mcu_fd_sc_mcu7t5v0__clkbuf_8 I Z VDD VNW VPW VSS
.ends

* Black-box entry subcircuit for gf180mcu_fd_sc_mcu7t5v0__aoi21_4 abstract view
.subckt gf180mcu_fd_sc_mcu7t5v0__aoi21_4 A1 A2 B ZN VDD VNW VPW VSS
.ends

* Black-box entry subcircuit for gf180mcu_fd_sc_mcu7t5v0__clkbuf_4 abstract view
.subckt gf180mcu_fd_sc_mcu7t5v0__clkbuf_4 I Z VDD VNW VPW VSS
.ends

* Black-box entry subcircuit for gf180mcu_fd_sc_mcu7t5v0__aoi221_4 abstract view
.subckt gf180mcu_fd_sc_mcu7t5v0__aoi221_4 A1 A2 B1 B2 C ZN VDD VNW VPW VSS
.ends

* Black-box entry subcircuit for gf180mcu_fd_sc_mcu7t5v0__buf_4 abstract view
.subckt gf180mcu_fd_sc_mcu7t5v0__buf_4 I Z VDD VNW VPW VSS
.ends

* Black-box entry subcircuit for gf180mcu_fd_sc_mcu7t5v0__dlya_2 abstract view
.subckt gf180mcu_fd_sc_mcu7t5v0__dlya_2 I Z VDD VNW VPW VSS
.ends

* Black-box entry subcircuit for gf180mcu_fd_sc_mcu7t5v0__and2_2 abstract view
.subckt gf180mcu_fd_sc_mcu7t5v0__and2_2 A1 A2 Z VDD VNW VPW VSS
.ends

* Black-box entry subcircuit for gf180mcu_fd_sc_mcu7t5v0__clkinv_3 abstract view
.subckt gf180mcu_fd_sc_mcu7t5v0__clkinv_3 I ZN VDD VNW VPW VSS
.ends

* Black-box entry subcircuit for gf180mcu_fd_sc_mcu7t5v0__aoi221_2 abstract view
.subckt gf180mcu_fd_sc_mcu7t5v0__aoi221_2 A1 A2 B1 B2 C ZN VDD VNW VPW VSS
.ends

* Black-box entry subcircuit for gf180mcu_fd_sc_mcu7t5v0__xnor2_1 abstract view
.subckt gf180mcu_fd_sc_mcu7t5v0__xnor2_1 A1 A2 ZN VDD VNW VPW VSS
.ends

* Black-box entry subcircuit for gf180mcu_fd_sc_mcu7t5v0__aoi221_1 abstract view
.subckt gf180mcu_fd_sc_mcu7t5v0__aoi221_1 A1 A2 B1 B2 C ZN VDD VNW VPW VSS
.ends

* Black-box entry subcircuit for gf180mcu_fd_sc_mcu7t5v0__inv_2 abstract view
.subckt gf180mcu_fd_sc_mcu7t5v0__inv_2 I ZN VDD VNW VPW VSS
.ends

* Black-box entry subcircuit for gf180mcu_fd_sc_mcu7t5v0__oai221_4 abstract view
.subckt gf180mcu_fd_sc_mcu7t5v0__oai221_4 A1 A2 B1 B2 C ZN VDD VNW VPW VSS
.ends

* Black-box entry subcircuit for gf180mcu_fd_sc_mcu7t5v0__oai221_2 abstract view
.subckt gf180mcu_fd_sc_mcu7t5v0__oai221_2 A1 A2 B1 B2 C ZN VDD VNW VPW VSS
.ends

* Black-box entry subcircuit for gf180mcu_fd_sc_mcu7t5v0__oai22_2 abstract view
.subckt gf180mcu_fd_sc_mcu7t5v0__oai22_2 A1 A2 B1 B2 ZN VDD VNW VPW VSS
.ends

* Black-box entry subcircuit for gf180mcu_fd_sc_mcu7t5v0__oai31_4 abstract view
.subckt gf180mcu_fd_sc_mcu7t5v0__oai31_4 A1 A2 A3 B ZN VDD VNW VPW VSS
.ends

* Black-box entry subcircuit for gf180mcu_fd_sc_mcu7t5v0__aoi222_4 abstract view
.subckt gf180mcu_fd_sc_mcu7t5v0__aoi222_4 A1 A2 B1 B2 C1 C2 ZN VDD VNW VPW VSS
.ends

* Black-box entry subcircuit for gf180mcu_fd_sc_mcu7t5v0__aoi22_4 abstract view
.subckt gf180mcu_fd_sc_mcu7t5v0__aoi22_4 A1 A2 B1 B2 ZN VDD VNW VPW VSS
.ends

* Black-box entry subcircuit for gf180mcu_fd_sc_mcu7t5v0__oai211_2 abstract view
.subckt gf180mcu_fd_sc_mcu7t5v0__oai211_2 A1 A2 B C ZN VDD VNW VPW VSS
.ends

* Black-box entry subcircuit for gf180mcu_fd_sc_mcu7t5v0__buf_2 abstract view
.subckt gf180mcu_fd_sc_mcu7t5v0__buf_2 I Z VDD VNW VPW VSS
.ends

* Black-box entry subcircuit for gf180mcu_fd_sc_mcu7t5v0__inv_4 abstract view
.subckt gf180mcu_fd_sc_mcu7t5v0__inv_4 I ZN VDD VNW VPW VSS
.ends

* Black-box entry subcircuit for gf180mcu_fd_sc_mcu7t5v0__aoi211_2 abstract view
.subckt gf180mcu_fd_sc_mcu7t5v0__aoi211_2 A1 A2 B C ZN VDD VNW VPW VSS
.ends

* Black-box entry subcircuit for gf180mcu_fd_sc_mcu7t5v0__mux4_1 abstract view
.subckt gf180mcu_fd_sc_mcu7t5v0__mux4_1 I0 I1 I2 I3 S0 S1 Z VDD VNW VPW VSS
.ends

* Black-box entry subcircuit for gf180mcu_fd_sc_mcu7t5v0__nand4_2 abstract view
.subckt gf180mcu_fd_sc_mcu7t5v0__nand4_2 A1 A2 A3 A4 ZN VDD VNW VPW VSS
.ends

* Black-box entry subcircuit for gf180mcu_fd_sc_mcu7t5v0__aoi222_1 abstract view
.subckt gf180mcu_fd_sc_mcu7t5v0__aoi222_1 A1 A2 B1 B2 C1 C2 ZN VDD VNW VPW VSS
.ends

* Black-box entry subcircuit for gf180mcu_fd_sc_mcu7t5v0__and3_1 abstract view
.subckt gf180mcu_fd_sc_mcu7t5v0__and3_1 A1 A2 A3 Z VDD VNW VPW VSS
.ends

* Black-box entry subcircuit for gf180mcu_fd_sc_mcu7t5v0__nor4_2 abstract view
.subckt gf180mcu_fd_sc_mcu7t5v0__nor4_2 A1 A2 A3 A4 ZN VDD VNW VPW VSS
.ends

* Black-box entry subcircuit for gf180mcu_fd_sc_mcu7t5v0__and4_1 abstract view
.subckt gf180mcu_fd_sc_mcu7t5v0__and4_1 A1 A2 A3 A4 Z VDD VNW VPW VSS
.ends

* Black-box entry subcircuit for gf180mcu_fd_sc_mcu7t5v0__oai22_4 abstract view
.subckt gf180mcu_fd_sc_mcu7t5v0__oai22_4 A1 A2 B1 B2 ZN VDD VNW VPW VSS
.ends

* Black-box entry subcircuit for gf180mcu_fd_sc_mcu7t5v0__and3_2 abstract view
.subckt gf180mcu_fd_sc_mcu7t5v0__and3_2 A1 A2 A3 Z VDD VNW VPW VSS
.ends

* Black-box entry subcircuit for gf180mcu_fd_sc_mcu7t5v0__oai32_1 abstract view
.subckt gf180mcu_fd_sc_mcu7t5v0__oai32_1 A1 A2 A3 B1 B2 ZN VDD VNW VPW VSS
.ends

* Black-box entry subcircuit for gf180mcu_fd_sc_mcu7t5v0__clkinv_8 abstract view
.subckt gf180mcu_fd_sc_mcu7t5v0__clkinv_8 I ZN VDD VNW VPW VSS
.ends

* Black-box entry subcircuit for gf180mcu_fd_sc_mcu7t5v0__mux2_4 abstract view
.subckt gf180mcu_fd_sc_mcu7t5v0__mux2_4 I0 I1 S Z VDD VNW VPW VSS
.ends

* Black-box entry subcircuit for gf180mcu_fd_sc_mcu7t5v0__inv_3 abstract view
.subckt gf180mcu_fd_sc_mcu7t5v0__inv_3 I ZN VDD VNW VPW VSS
.ends

* Black-box entry subcircuit for gf180mcu_fd_sc_mcu7t5v0__and3_4 abstract view
.subckt gf180mcu_fd_sc_mcu7t5v0__and3_4 A1 A2 A3 Z VDD VNW VPW VSS
.ends

* Black-box entry subcircuit for gf180mcu_fd_sc_mcu7t5v0__oai31_1 abstract view
.subckt gf180mcu_fd_sc_mcu7t5v0__oai31_1 A1 A2 A3 B ZN VDD VNW VPW VSS
.ends

* Black-box entry subcircuit for gf180mcu_fd_sc_mcu7t5v0__mux4_2 abstract view
.subckt gf180mcu_fd_sc_mcu7t5v0__mux4_2 I0 I1 I2 I3 S0 S1 Z VDD VNW VPW VSS
.ends

* Black-box entry subcircuit for gf180mcu_fd_sc_mcu7t5v0__xnor2_2 abstract view
.subckt gf180mcu_fd_sc_mcu7t5v0__xnor2_2 A1 A2 ZN VDD VNW VPW VSS
.ends

* Black-box entry subcircuit for gf180mcu_fd_sc_mcu7t5v0__or3_4 abstract view
.subckt gf180mcu_fd_sc_mcu7t5v0__or3_4 A1 A2 A3 Z VDD VNW VPW VSS
.ends

* Black-box entry subcircuit for gf180mcu_fd_sc_mcu7t5v0__clkinv_4 abstract view
.subckt gf180mcu_fd_sc_mcu7t5v0__clkinv_4 I ZN VDD VNW VPW VSS
.ends

* Black-box entry subcircuit for gf180mcu_fd_sc_mcu7t5v0__and2_4 abstract view
.subckt gf180mcu_fd_sc_mcu7t5v0__and2_4 A1 A2 Z VDD VNW VPW VSS
.ends

* Black-box entry subcircuit for gf180mcu_fd_sc_mcu7t5v0__or2_4 abstract view
.subckt gf180mcu_fd_sc_mcu7t5v0__or2_4 A1 A2 Z VDD VNW VPW VSS
.ends

* Black-box entry subcircuit for gf180mcu_fd_sc_mcu7t5v0__and4_2 abstract view
.subckt gf180mcu_fd_sc_mcu7t5v0__and4_2 A1 A2 A3 A4 Z VDD VNW VPW VSS
.ends

* Black-box entry subcircuit for gf180mcu_fd_sc_mcu7t5v0__aoi222_2 abstract view
.subckt gf180mcu_fd_sc_mcu7t5v0__aoi222_2 A1 A2 B1 B2 C1 C2 ZN VDD VNW VPW VSS
.ends

* Black-box entry subcircuit for gf180mcu_fd_sc_mcu7t5v0__xor3_2 abstract view
.subckt gf180mcu_fd_sc_mcu7t5v0__xor3_2 A1 A2 A3 Z VDD VNW VPW VSS
.ends

* Black-box entry subcircuit for gf180mcu_fd_sc_mcu7t5v0__inv_8 abstract view
.subckt gf180mcu_fd_sc_mcu7t5v0__inv_8 I ZN VDD VNW VPW VSS
.ends

* Black-box entry subcircuit for gf180mcu_fd_sc_mcu7t5v0__or3_2 abstract view
.subckt gf180mcu_fd_sc_mcu7t5v0__or3_2 A1 A2 A3 Z VDD VNW VPW VSS
.ends

* Black-box entry subcircuit for gf180mcu_fd_sc_mcu7t5v0__oai32_2 abstract view
.subckt gf180mcu_fd_sc_mcu7t5v0__oai32_2 A1 A2 A3 B1 B2 ZN VDD VNW VPW VSS
.ends

* Black-box entry subcircuit for gf180mcu_fd_sc_mcu7t5v0__or3_1 abstract view
.subckt gf180mcu_fd_sc_mcu7t5v0__or3_1 A1 A2 A3 Z VDD VNW VPW VSS
.ends

* Black-box entry subcircuit for gf180mcu_fd_sc_mcu7t5v0__oai32_4 abstract view
.subckt gf180mcu_fd_sc_mcu7t5v0__oai32_4 A1 A2 A3 B1 B2 ZN VDD VNW VPW VSS
.ends

* Black-box entry subcircuit for gf180mcu_fd_sc_mcu7t5v0__xor2_4 abstract view
.subckt gf180mcu_fd_sc_mcu7t5v0__xor2_4 A1 A2 Z VDD VNW VPW VSS
.ends

* Black-box entry subcircuit for gf180mcu_fd_sc_mcu7t5v0__tiel abstract view
.subckt gf180mcu_fd_sc_mcu7t5v0__tiel ZN VDD VNW VPW VSS
.ends

* Black-box entry subcircuit for gf180mcu_fd_sc_mcu7t5v0__or2_2 abstract view
.subckt gf180mcu_fd_sc_mcu7t5v0__or2_2 A1 A2 Z VDD VNW VPW VSS
.ends

* Black-box entry subcircuit for gf180mcu_fd_sc_mcu7t5v0__or4_4 abstract view
.subckt gf180mcu_fd_sc_mcu7t5v0__or4_4 A1 A2 A3 A4 Z VDD VNW VPW VSS
.ends

* Black-box entry subcircuit for gf180mcu_fd_sc_mcu7t5v0__clkbuf_12 abstract view
.subckt gf180mcu_fd_sc_mcu7t5v0__clkbuf_12 I Z VDD VNW VPW VSS
.ends

* Black-box entry subcircuit for gf180mcu_fd_sc_mcu7t5v0__xnor2_4 abstract view
.subckt gf180mcu_fd_sc_mcu7t5v0__xnor2_4 A1 A2 ZN VDD VNW VPW VSS
.ends

* Black-box entry subcircuit for gf180mcu_fd_sc_mcu7t5v0__dlyc_1 abstract view
.subckt gf180mcu_fd_sc_mcu7t5v0__dlyc_1 I Z VDD VNW VPW VSS
.ends

* Black-box entry subcircuit for gf180mcu_fd_sc_mcu7t5v0__or4_2 abstract view
.subckt gf180mcu_fd_sc_mcu7t5v0__or4_2 A1 A2 A3 A4 Z VDD VNW VPW VSS
.ends

* Black-box entry subcircuit for gf180mcu_fd_sc_mcu7t5v0__dlya_1 abstract view
.subckt gf180mcu_fd_sc_mcu7t5v0__dlya_1 I Z VDD VNW VPW VSS
.ends

* Black-box entry subcircuit for gf180mcu_fd_sc_mcu7t5v0__xnor3_1 abstract view
.subckt gf180mcu_fd_sc_mcu7t5v0__xnor3_1 A1 A2 A3 ZN VDD VNW VPW VSS
.ends

.subckt core1 dbg_pc[0] dbg_pc[10] dbg_pc[11] dbg_pc[12] dbg_pc[13] dbg_pc[14] dbg_pc[15]
+ dbg_pc[1] dbg_pc[2] dbg_pc[3] dbg_pc[4] dbg_pc[5] dbg_pc[6] dbg_pc[7] dbg_pc[8]
+ dbg_pc[9] dbg_r0[0] dbg_r0[10] dbg_r0[11] dbg_r0[12] dbg_r0[13] dbg_r0[14] dbg_r0[15]
+ dbg_r0[1] dbg_r0[2] dbg_r0[3] dbg_r0[4] dbg_r0[5] dbg_r0[6] dbg_r0[7] dbg_r0[8]
+ dbg_r0[9] i_clk i_core_int_sreg[0] i_core_int_sreg[10] i_core_int_sreg[11] i_core_int_sreg[12]
+ i_core_int_sreg[13] i_core_int_sreg[14] i_core_int_sreg[15] i_core_int_sreg[1] i_core_int_sreg[2]
+ i_core_int_sreg[3] i_core_int_sreg[4] i_core_int_sreg[5] i_core_int_sreg[6] i_core_int_sreg[7]
+ i_core_int_sreg[8] i_core_int_sreg[9] i_disable i_irq i_mc_core_int i_mem_ack i_mem_data[0]
+ i_mem_data[10] i_mem_data[11] i_mem_data[12] i_mem_data[13] i_mem_data[14] i_mem_data[15]
+ i_mem_data[1] i_mem_data[2] i_mem_data[3] i_mem_data[4] i_mem_data[5] i_mem_data[6]
+ i_mem_data[7] i_mem_data[8] i_mem_data[9] i_mem_exception i_req_data[0] i_req_data[10]
+ i_req_data[11] i_req_data[12] i_req_data[13] i_req_data[14] i_req_data[15] i_req_data[16]
+ i_req_data[17] i_req_data[18] i_req_data[19] i_req_data[1] i_req_data[20] i_req_data[21]
+ i_req_data[22] i_req_data[23] i_req_data[24] i_req_data[25] i_req_data[26] i_req_data[27]
+ i_req_data[28] i_req_data[29] i_req_data[2] i_req_data[30] i_req_data[31] i_req_data[3]
+ i_req_data[4] i_req_data[5] i_req_data[6] i_req_data[7] i_req_data[8] i_req_data[9]
+ i_req_data_valid i_rst o_c_data_page o_c_instr_long o_c_instr_page o_icache_flush
+ o_instr_long_addr[0] o_instr_long_addr[1] o_instr_long_addr[2] o_instr_long_addr[3]
+ o_instr_long_addr[4] o_instr_long_addr[5] o_instr_long_addr[6] o_instr_long_addr[7]
+ o_mem_addr[0] o_mem_addr[10] o_mem_addr[11] o_mem_addr[12] o_mem_addr[13] o_mem_addr[14]
+ o_mem_addr[15] o_mem_addr[1] o_mem_addr[2] o_mem_addr[3] o_mem_addr[4] o_mem_addr[5]
+ o_mem_addr[6] o_mem_addr[7] o_mem_addr[8] o_mem_addr[9] o_mem_addr_high[0] o_mem_addr_high[1]
+ o_mem_addr_high[2] o_mem_addr_high[3] o_mem_addr_high[4] o_mem_addr_high[5] o_mem_addr_high[6]
+ o_mem_data[0] o_mem_data[10] o_mem_data[11] o_mem_data[12] o_mem_data[13] o_mem_data[14]
+ o_mem_data[15] o_mem_data[1] o_mem_data[2] o_mem_data[3] o_mem_data[4] o_mem_data[5]
+ o_mem_data[6] o_mem_data[7] o_mem_data[8] o_mem_data[9] o_mem_long o_mem_req o_mem_sel[0]
+ o_mem_sel[1] o_mem_we o_req_active o_req_addr[0] o_req_addr[10] o_req_addr[11] o_req_addr[12]
+ o_req_addr[13] o_req_addr[14] o_req_addr[15] o_req_addr[1] o_req_addr[2] o_req_addr[3]
+ o_req_addr[4] o_req_addr[5] o_req_addr[6] o_req_addr[7] o_req_addr[8] o_req_addr[9]
+ o_req_ppl_submit sr_bus_addr[0] sr_bus_addr[10] sr_bus_addr[11] sr_bus_addr[12]
+ sr_bus_addr[13] sr_bus_addr[14] sr_bus_addr[15] sr_bus_addr[1] sr_bus_addr[2] sr_bus_addr[3]
+ sr_bus_addr[4] sr_bus_addr[5] sr_bus_addr[6] sr_bus_addr[7] sr_bus_addr[8] sr_bus_addr[9]
+ sr_bus_data_o[0] sr_bus_data_o[10] sr_bus_data_o[11] sr_bus_data_o[12] sr_bus_data_o[13]
+ sr_bus_data_o[14] sr_bus_data_o[15] sr_bus_data_o[1] sr_bus_data_o[2] sr_bus_data_o[3]
+ sr_bus_data_o[4] sr_bus_data_o[5] sr_bus_data_o[6] sr_bus_data_o[7] sr_bus_data_o[8]
+ sr_bus_data_o[9] sr_bus_we vccd1 vssd1 o_mem_addr_high[7]
XFILLER_0_207_762 vccd1 vccd1 vssd1 vssd1 gf180mcu_fd_sc_mcu7t5v0__fill_2
XANTENNA__7406__A1 net204 vccd1 vccd1 vssd1 vssd1 gf180mcu_fd_sc_mcu7t5v0__antenna
XFILLER_0_118_51 vccd1 vccd1 vssd1 vssd1 gf180mcu_fd_sc_mcu7t5v0__fill_2
XFILLER_0_222_710 vccd1 vccd1 vssd1 vssd1 gf180mcu_fd_sc_mcu7t5v0__fill_1
XFILLER_0_207_784 vccd1 vccd1 vssd1 vssd1 gf180mcu_fd_sc_mcu7t5v0__fill_2
XTAP_TAPCELL_ROW_2_538 vccd1 vssd1 gf180mcu_fd_sc_mcu7t5v0__filltie
XFILLER_0_179_614 vccd1 vccd1 vssd1 vssd1 gf180mcu_fd_sc_mcu7t5v0__fill_1
XFILLER_0_234_592 vccd1 vccd1 vssd1 vssd1 gf180mcu_fd_sc_mcu7t5v0__fill_2
XFILLER_0_222_732 vccd1 vccd1 vssd1 vssd1 gf180mcu_fd_sc_mcu7t5v0__fill_1
XFILLER_0_118_95 vccd1 vccd1 vssd1 vssd1 gf180mcu_fd_sc_mcu7t5v0__fillcap_4
XFILLER_0_221_220 vccd1 vccd1 vssd1 vssd1 gf180mcu_fd_sc_mcu7t5v0__fillcap_4
X_7963_ _0146_ clknet_leaf_29_i_clk core_1.execute.mem_stage_pc\[4\] vccd1 vccd1 vssd1
+ vssd1 gf180mcu_fd_sc_mcu7t5v0__dffq_1
XFILLER_0_96_409 vccd1 vccd1 vssd1 vssd1 gf180mcu_fd_sc_mcu7t5v0__fill_2
XTAP_TAPCELL_ROW_38_968 vccd1 vssd1 gf180mcu_fd_sc_mcu7t5v0__filltie
XANTENNA__7009__I1 _3228_ vccd1 vccd1 vssd1 vssd1 gf180mcu_fd_sc_mcu7t5v0__antenna
XFILLER_0_222_787 vccd1 vccd1 vssd1 vssd1 gf180mcu_fd_sc_mcu7t5v0__fillcap_16
X_6914_ net100 _3146_ _3143_ _3149_ vccd1 vccd1 vssd1 vssd1 gf180mcu_fd_sc_mcu7t5v0__oai21_1
XFILLER_0_194_617 vccd1 vccd1 vssd1 vssd1 gf180mcu_fd_sc_mcu7t5v0__fillcap_8
X_7894_ _0091_ clknet_leaf_70_i_clk core_1.decode.i_imm_pass\[9\] vccd1 vccd1 vssd1
+ vssd1 gf180mcu_fd_sc_mcu7t5v0__dffq_1
XANTENNA__4640__A1 net106 vccd1 vccd1 vssd1 vssd1 gf180mcu_fd_sc_mcu7t5v0__antenna
XANTENNA__7709__A2 _0514_ vccd1 vccd1 vssd1 vssd1 gf180mcu_fd_sc_mcu7t5v0__antenna
XFILLER_0_221_297 vccd1 vccd1 vssd1 vssd1 gf180mcu_fd_sc_mcu7t5v0__fillcap_32
XTAP_TAPCELL_ROW_159_2418 vccd1 vssd1 gf180mcu_fd_sc_mcu7t5v0__filltie
X_6845_ core_1.execute.rf.reg_outputs\[2\]\[9\] _3102_ _3103_ _3109_ vccd1 vccd1 vssd1
+ vssd1 gf180mcu_fd_sc_mcu7t5v0__oai21_1
XFILLER_0_175_842 vccd1 vccd1 vssd1 vssd1 gf180mcu_fd_sc_mcu7t5v0__fillcap_16
XFILLER_0_92_615 vccd1 vccd1 vssd1 vssd1 gf180mcu_fd_sc_mcu7t5v0__fill_1
XFILLER_0_43_92 vccd1 vccd1 vssd1 vssd1 gf180mcu_fd_sc_mcu7t5v0__fill_2
XFILLER_0_64_317 vccd1 vccd1 vssd1 vssd1 gf180mcu_fd_sc_mcu7t5v0__fill_1
XFILLER_0_76_177 vccd1 vccd1 vssd1 vssd1 gf180mcu_fd_sc_mcu7t5v0__fill_2
XFILLER_0_174_330 vccd1 vccd1 vssd1 vssd1 gf180mcu_fd_sc_mcu7t5v0__fill_2
XANTENNA__6361__S _2118_ vccd1 vccd1 vssd1 vssd1 gf180mcu_fd_sc_mcu7t5v0__antenna
XFILLER_0_64_328 vccd1 vccd1 vssd1 vssd1 gf180mcu_fd_sc_mcu7t5v0__fill_1
XFILLER_0_17_200 vccd1 vccd1 vssd1 vssd1 gf180mcu_fd_sc_mcu7t5v0__fill_2
XANTENNA__6393__A1 _2118_ vccd1 vccd1 vssd1 vssd1 gf180mcu_fd_sc_mcu7t5v0__antenna
X_6776_ core_1.execute.rf.reg_outputs\[4\]\[12\] _3059_ _3062_ _3069_ vccd1 vccd1
+ vssd1 vssd1 gf180mcu_fd_sc_mcu7t5v0__oai21_1
X_3988_ _0620_ net209 vccd1 vccd1 vssd1 vssd1 gf180mcu_fd_sc_mcu7t5v0__clkinv_2
XFILLER_0_18_745 vccd1 vccd1 vssd1 vssd1 gf180mcu_fd_sc_mcu7t5v0__fill_2
XFILLER_0_91_136 vccd1 vccd1 vssd1 vssd1 gf180mcu_fd_sc_mcu7t5v0__fillcap_4
XFILLER_0_92_659 vccd1 vccd1 vssd1 vssd1 gf180mcu_fd_sc_mcu7t5v0__fill_2
XANTENNA_rebuffer46_I _1429_ vccd1 vccd1 vssd1 vssd1 gf180mcu_fd_sc_mcu7t5v0__antenna
X_5727_ _2129_ _2130_ _2098_ _2131_ vccd1 vccd1 vssd1 vssd1 gf180mcu_fd_sc_mcu7t5v0__mux2_2
XANTENNA__4943__A2 _0609_ vccd1 vccd1 vssd1 vssd1 gf180mcu_fd_sc_mcu7t5v0__antenna
XFILLER_0_150_60 vccd1 vccd1 vssd1 vssd1 gf180mcu_fd_sc_mcu7t5v0__fill_2
XFILLER_0_17_277 vccd1 vccd1 vssd1 vssd1 gf180mcu_fd_sc_mcu7t5v0__fill_2
XFILLER_0_60_512 vccd1 vccd1 vssd1 vssd1 gf180mcu_fd_sc_mcu7t5v0__fill_2
XANTENNA__6145__A1 _2240_ vccd1 vccd1 vssd1 vssd1 gf180mcu_fd_sc_mcu7t5v0__antenna
XFILLER_0_150_93 vccd1 vccd1 vssd1 vssd1 gf180mcu_fd_sc_mcu7t5v0__fill_2
XFILLER_0_32_225 vccd1 vccd1 vssd1 vssd1 gf180mcu_fd_sc_mcu7t5v0__fillcap_16
X_5658_ _2051_ _2054_ _2058_ _2061_ _2062_ vccd1 vccd1 vssd1 vssd1 gf180mcu_fd_sc_mcu7t5v0__oai211_4
XFILLER_0_143_772 vccd1 vccd1 vssd1 vssd1 gf180mcu_fd_sc_mcu7t5v0__fillcap_64
XFILLER_0_32_247 vccd1 vccd1 vssd1 vssd1 gf180mcu_fd_sc_mcu7t5v0__fill_2
XFILLER_0_130_400 vccd1 vccd1 vssd1 vssd1 gf180mcu_fd_sc_mcu7t5v0__fill_1
XTAP_TAPCELL_ROW_211_3040 vccd1 vssd1 gf180mcu_fd_sc_mcu7t5v0__filltie
XANTENNA__6696__A2 _3015_ vccd1 vccd1 vssd1 vssd1 gf180mcu_fd_sc_mcu7t5v0__antenna
XFILLER_0_103_636 vccd1 vccd1 vssd1 vssd1 gf180mcu_fd_sc_mcu7t5v0__fill_2
X_4609_ core_1.dec_jump_cond_code\[2\] _1170_ _1171_ vccd1 vccd1 vssd1 vssd1 gf180mcu_fd_sc_mcu7t5v0__nand2_1
X_5589_ _1995_ _0177_ vccd1 vccd1 vssd1 vssd1 gf180mcu_fd_sc_mcu7t5v0__clkbuf_1
X_7328_ _2562_ _3503_ _3504_ vccd1 vccd1 vssd1 vssd1 gf180mcu_fd_sc_mcu7t5v0__nor2_1
XFILLER_0_130_477 vccd1 vccd1 vssd1 vssd1 gf180mcu_fd_sc_mcu7t5v0__fillcap_8
XANTENNA__6448__A2 _1100_ vccd1 vccd1 vssd1 vssd1 gf180mcu_fd_sc_mcu7t5v0__antenna
X_7259_ _3442_ _3445_ _3424_ _0387_ vccd1 vccd1 vssd1 vssd1 gf180mcu_fd_sc_mcu7t5v0__aoi21_1
XTAP_TAPCELL_ROW_183_2703 vccd1 vssd1 gf180mcu_fd_sc_mcu7t5v0__filltie
XANTENNA__4459__A1 _1047_ vccd1 vccd1 vssd1 vssd1 gf180mcu_fd_sc_mcu7t5v0__antenna
XTAP_TAPCELL_ROW_183_2714 vccd1 vssd1 gf180mcu_fd_sc_mcu7t5v0__filltie
XFILLER_0_217_537 vccd1 vccd1 vssd1 vssd1 gf180mcu_fd_sc_mcu7t5v0__fill_2
XFILLER_0_217_559 vccd1 vccd1 vssd1 vssd1 gf180mcu_fd_sc_mcu7t5v0__fill_1
XANTENNA__5120__A2 _1501_ vccd1 vccd1 vssd1 vssd1 gf180mcu_fd_sc_mcu7t5v0__antenna
XANTENNA__6536__S _2768_ vccd1 vccd1 vssd1 vssd1 gf180mcu_fd_sc_mcu7t5v0__antenna
XFILLER_0_197_422 vccd1 vccd1 vssd1 vssd1 gf180mcu_fd_sc_mcu7t5v0__fill_2
XANTENNA__5959__A1 _2271_ vccd1 vccd1 vssd1 vssd1 gf180mcu_fd_sc_mcu7t5v0__antenna
XTAP_TAPCELL_ROW_222_3180 vccd1 vssd1 gf180mcu_fd_sc_mcu7t5v0__filltie
XFILLER_0_169_146 vccd1 vccd1 vssd1 vssd1 gf180mcu_fd_sc_mcu7t5v0__fill_1
XFILLER_0_212_275 vccd1 vccd1 vssd1 vssd1 gf180mcu_fd_sc_mcu7t5v0__fillcap_4
XFILLER_0_68_645 vccd1 vccd1 vssd1 vssd1 gf180mcu_fd_sc_mcu7t5v0__fillcap_16
XANTENNA__4631__A1 _0806_ vccd1 vccd1 vssd1 vssd1 gf180mcu_fd_sc_mcu7t5v0__antenna
XFILLER_0_197_488 vccd1 vccd1 vssd1 vssd1 gf180mcu_fd_sc_mcu7t5v0__fill_2
XFILLER_0_68_667 vccd1 vccd1 vssd1 vssd1 gf180mcu_fd_sc_mcu7t5v0__fillcap_16
XFILLER_0_95_464 vccd1 vccd1 vssd1 vssd1 gf180mcu_fd_sc_mcu7t5v0__fill_2
XFILLER_0_184_138 vccd1 vccd1 vssd1 vssd1 gf180mcu_fd_sc_mcu7t5v0__fillcap_32
XTAP_TAPCELL_ROW_103_1749 vccd1 vssd1 gf180mcu_fd_sc_mcu7t5v0__filltie
XTAP_TAPCELL_ROW_140_2190 vccd1 vssd1 gf180mcu_fd_sc_mcu7t5v0__filltie
XFILLER_0_165_330 vccd1 vccd1 vssd1 vssd1 gf180mcu_fd_sc_mcu7t5v0__fillcap_4
XTAP_TAPCELL_ROW_194_2843 vccd1 vssd1 gf180mcu_fd_sc_mcu7t5v0__filltie
XFILLER_0_82_103 vccd1 vccd1 vssd1 vssd1 gf180mcu_fd_sc_mcu7t5v0__fill_2
XFILLER_0_177_190 vccd1 vccd1 vssd1 vssd1 gf180mcu_fd_sc_mcu7t5v0__fillcap_8
XANTENNA__5187__A2 _1636_ vccd1 vccd1 vssd1 vssd1 gf180mcu_fd_sc_mcu7t5v0__antenna
XFILLER_0_67_199 vccd1 vccd1 vssd1 vssd1 gf180mcu_fd_sc_mcu7t5v0__fill_2
XFILLER_0_165_352 vccd1 vccd1 vssd1 vssd1 gf180mcu_fd_sc_mcu7t5v0__fill_1
XFILLER_0_193_672 vccd1 vccd1 vssd1 vssd1 gf180mcu_fd_sc_mcu7t5v0__fillcap_16
XFILLER_0_48_380 vccd1 vccd1 vssd1 vssd1 gf180mcu_fd_sc_mcu7t5v0__fillcap_4
XANTENNA__7008__S0 _1215_ vccd1 vccd1 vssd1 vssd1 gf180mcu_fd_sc_mcu7t5v0__antenna
XFILLER_0_119_780 vccd1 vccd1 vssd1 vssd1 gf180mcu_fd_sc_mcu7t5v0__fill_1
XFILLER_0_153_536 vccd1 vccd1 vssd1 vssd1 gf180mcu_fd_sc_mcu7t5v0__fill_2
XFILLER_0_70_309 vccd1 vccd1 vssd1 vssd1 gf180mcu_fd_sc_mcu7t5v0__fillcap_4
XFILLER_0_119_791 vccd1 vccd1 vssd1 vssd1 gf180mcu_fd_sc_mcu7t5v0__fill_2
XANTENNA__4934__A2 _1379_ vccd1 vccd1 vssd1 vssd1 gf180mcu_fd_sc_mcu7t5v0__antenna
XFILLER_0_63_372 vccd1 vccd1 vssd1 vssd1 gf180mcu_fd_sc_mcu7t5v0__fill_2
XFILLER_0_36_597 vccd1 vccd1 vssd1 vssd1 gf180mcu_fd_sc_mcu7t5v0__fill_2
XFILLER_0_24_737 vccd1 vccd1 vssd1 vssd1 gf180mcu_fd_sc_mcu7t5v0__fillcap_16
XFILLER_0_3_609 vccd1 vccd1 vssd1 vssd1 gf180mcu_fd_sc_mcu7t5v0__fill_2
Xrebuffer7 _1429_ net235 vccd1 vccd1 vssd1 vssd1 gf180mcu_fd_sc_mcu7t5v0__clkbuf_2
XFILLER_0_106_452 vccd1 vccd1 vssd1 vssd1 gf180mcu_fd_sc_mcu7t5v0__fill_2
XFILLER_0_106_463 vccd1 vccd1 vssd1 vssd1 gf180mcu_fd_sc_mcu7t5v0__fill_2