* NGSPICE file created from int_ram.ext - technology: gf180mcuD

* Black-box entry subcircuit for gf180mcu_fd_sc_mcu7t5v0__oai21_1 abstract view
.subckt gf180mcu_fd_sc_mcu7t5v0__oai21_1 A1 A2 B ZN VDD VNW VPW VSS
.ends

* Black-box entry subcircuit for gf180mcu_fd_sc_mcu7t5v0__fillcap_16 abstract view
.subckt gf180mcu_fd_sc_mcu7t5v0__fillcap_16 VDD VNW VPW VSS
.ends

* Black-box entry subcircuit for gf180mcu_fd_sc_mcu7t5v0__fill_1 abstract view
.subckt gf180mcu_fd_sc_mcu7t5v0__fill_1 VDD VNW VPW VSS
.ends

* Black-box entry subcircuit for gf180mcu_fd_sc_mcu7t5v0__nand2_1 abstract view
.subckt gf180mcu_fd_sc_mcu7t5v0__nand2_1 A1 A2 ZN VDD VNW VPW VSS
.ends

* Black-box entry subcircuit for gf180mcu_fd_sc_mcu7t5v0__fillcap_4 abstract view
.subckt gf180mcu_fd_sc_mcu7t5v0__fillcap_4 VDD VNW VPW VSS
.ends

* Black-box entry subcircuit for gf180mcu_fd_sc_mcu7t5v0__filltie abstract view
.subckt gf180mcu_fd_sc_mcu7t5v0__filltie VDD VSS
.ends

* Black-box entry subcircuit for gf180mcu_fd_sc_mcu7t5v0__nand4_1 abstract view
.subckt gf180mcu_fd_sc_mcu7t5v0__nand4_1 A1 A2 A3 A4 ZN VDD VNW VPW VSS
.ends

* Black-box entry subcircuit for gf180mcu_fd_sc_mcu7t5v0__nand3_1 abstract view
.subckt gf180mcu_fd_sc_mcu7t5v0__nand3_1 A1 A2 A3 ZN VDD VNW VPW VSS
.ends

* Black-box entry subcircuit for gf180mcu_fd_sc_mcu7t5v0__fill_2 abstract view
.subckt gf180mcu_fd_sc_mcu7t5v0__fill_2 VDD VNW VPW VSS
.ends

* Black-box entry subcircuit for gf180mcu_fd_sc_mcu7t5v0__nor2_1 abstract view
.subckt gf180mcu_fd_sc_mcu7t5v0__nor2_1 A1 A2 ZN VDD VNW VPW VSS
.ends

* Black-box entry subcircuit for gf180mcu_fd_sc_mcu7t5v0__dffq_1 abstract view
.subckt gf180mcu_fd_sc_mcu7t5v0__dffq_1 D CLK Q VDD VNW VPW VSS
.ends

* Black-box entry subcircuit for gf180mcu_fd_sc_mcu7t5v0__fillcap_8 abstract view
.subckt gf180mcu_fd_sc_mcu7t5v0__fillcap_8 VDD VNW VPW VSS
.ends

* Black-box entry subcircuit for gf180mcu_fd_sc_mcu7t5v0__buf_4 abstract view
.subckt gf180mcu_fd_sc_mcu7t5v0__buf_4 I Z VDD VNW VPW VSS
.ends

* Black-box entry subcircuit for gf180mcu_fd_sc_mcu7t5v0__buf_2 abstract view
.subckt gf180mcu_fd_sc_mcu7t5v0__buf_2 I Z VDD VNW VPW VSS
.ends

* Black-box entry subcircuit for gf180mcu_fd_sc_mcu7t5v0__clkbuf_3 abstract view
.subckt gf180mcu_fd_sc_mcu7t5v0__clkbuf_3 I Z VDD VNW VPW VSS
.ends

* Black-box entry subcircuit for gf180mcu_fd_sc_mcu7t5v0__nand2_2 abstract view
.subckt gf180mcu_fd_sc_mcu7t5v0__nand2_2 A1 A2 ZN VDD VNW VPW VSS
.ends

* Black-box entry subcircuit for gf180mcu_fd_sc_mcu7t5v0__fillcap_32 abstract view
.subckt gf180mcu_fd_sc_mcu7t5v0__fillcap_32 VDD VNW VPW VSS
.ends

* Black-box entry subcircuit for gf180mcu_fd_sc_mcu7t5v0__clkbuf_16 abstract view
.subckt gf180mcu_fd_sc_mcu7t5v0__clkbuf_16 I Z VDD VNW VPW VSS
.ends

* Black-box entry subcircuit for gf180mcu_fd_sc_mcu7t5v0__endcap abstract view
.subckt gf180mcu_fd_sc_mcu7t5v0__endcap VDD VSS
.ends

* Black-box entry subcircuit for gf180mcu_fd_sc_mcu7t5v0__nor2_2 abstract view
.subckt gf180mcu_fd_sc_mcu7t5v0__nor2_2 A1 A2 ZN VDD VNW VPW VSS
.ends

* Black-box entry subcircuit for gf180mcu_fd_sc_mcu7t5v0__nand3_4 abstract view
.subckt gf180mcu_fd_sc_mcu7t5v0__nand3_4 A1 A2 A3 ZN VDD VNW VPW VSS
.ends

* Black-box entry subcircuit for gf180mcu_fd_sc_mcu7t5v0__fillcap_64 abstract view
.subckt gf180mcu_fd_sc_mcu7t5v0__fillcap_64 VDD VNW VPW VSS
.ends

* Black-box entry subcircuit for gf180mcu_fd_sc_mcu7t5v0__buf_1 abstract view
.subckt gf180mcu_fd_sc_mcu7t5v0__buf_1 I Z VDD VNW VPW VSS
.ends

* Black-box entry subcircuit for gf180mcu_fd_sc_mcu7t5v0__clkbuf_2 abstract view
.subckt gf180mcu_fd_sc_mcu7t5v0__clkbuf_2 I Z VDD VNW VPW VSS
.ends

* Black-box entry subcircuit for gf180mcu_fd_sc_mcu7t5v0__dlyc_1 abstract view
.subckt gf180mcu_fd_sc_mcu7t5v0__dlyc_1 I Z VDD VNW VPW VSS
.ends

* Black-box entry subcircuit for gf180mcu_fd_sc_mcu7t5v0__clkbuf_8 abstract view
.subckt gf180mcu_fd_sc_mcu7t5v0__clkbuf_8 I Z VDD VNW VPW VSS
.ends

* Black-box entry subcircuit for gf180mcu_fd_sc_mcu7t5v0__dlyb_1 abstract view
.subckt gf180mcu_fd_sc_mcu7t5v0__dlyb_1 I Z VDD VNW VPW VSS
.ends

* Black-box entry subcircuit for gf180mcu_fd_sc_mcu7t5v0__buf_3 abstract view
.subckt gf180mcu_fd_sc_mcu7t5v0__buf_3 I Z VDD VNW VPW VSS
.ends

* Black-box entry subcircuit for gf180mcu_fd_sc_mcu7t5v0__nor2_4 abstract view
.subckt gf180mcu_fd_sc_mcu7t5v0__nor2_4 A1 A2 ZN VDD VNW VPW VSS
.ends

* Black-box entry subcircuit for gf180mcu_fd_sc_mcu7t5v0__aoi21_1 abstract view
.subckt gf180mcu_fd_sc_mcu7t5v0__aoi21_1 A1 A2 B ZN VDD VNW VPW VSS
.ends

* Black-box entry subcircuit for gf180mcu_fd_sc_mcu7t5v0__clkinv_8 abstract view
.subckt gf180mcu_fd_sc_mcu7t5v0__clkinv_8 I ZN VDD VNW VPW VSS
.ends

* Black-box entry subcircuit for gf180mcu_fd_sc_mcu7t5v0__clkinv_3 abstract view
.subckt gf180mcu_fd_sc_mcu7t5v0__clkinv_3 I ZN VDD VNW VPW VSS
.ends

* Black-box entry subcircuit for gf180mcu_fd_sc_mcu7t5v0__nand3_2 abstract view
.subckt gf180mcu_fd_sc_mcu7t5v0__nand3_2 A1 A2 A3 ZN VDD VNW VPW VSS
.ends

* Black-box entry subcircuit for gf180mcu_fd_sc_mcu7t5v0__clkinv_1 abstract view
.subckt gf180mcu_fd_sc_mcu7t5v0__clkinv_1 I ZN VDD VNW VPW VSS
.ends

* Black-box entry subcircuit for gf180mcu_fd_sc_mcu7t5v0__or3_1 abstract view
.subckt gf180mcu_fd_sc_mcu7t5v0__or3_1 A1 A2 A3 Z VDD VNW VPW VSS
.ends

* Black-box entry subcircuit for gf180mcu_fd_sc_mcu7t5v0__aoi21_2 abstract view
.subckt gf180mcu_fd_sc_mcu7t5v0__aoi21_2 A1 A2 B ZN VDD VNW VPW VSS
.ends

* Black-box entry subcircuit for gf180mcu_fd_sc_mcu7t5v0__nand4_2 abstract view
.subckt gf180mcu_fd_sc_mcu7t5v0__nand4_2 A1 A2 A3 A4 ZN VDD VNW VPW VSS
.ends

* Black-box entry subcircuit for gf180mcu_fd_sc_mcu7t5v0__and2_2 abstract view
.subckt gf180mcu_fd_sc_mcu7t5v0__and2_2 A1 A2 Z VDD VNW VPW VSS
.ends

* Black-box entry subcircuit for gf180mcu_fd_sc_mcu7t5v0__inv_4 abstract view
.subckt gf180mcu_fd_sc_mcu7t5v0__inv_4 I ZN VDD VNW VPW VSS
.ends

* Black-box entry subcircuit for gf180mcu_fd_sc_mcu7t5v0__clkbuf_1 abstract view
.subckt gf180mcu_fd_sc_mcu7t5v0__clkbuf_1 I Z VDD VNW VPW VSS
.ends

* Black-box entry subcircuit for gf180mcu_fd_sc_mcu7t5v0__nor3_1 abstract view
.subckt gf180mcu_fd_sc_mcu7t5v0__nor3_1 A1 A2 A3 ZN VDD VNW VPW VSS
.ends

* Black-box entry subcircuit for gf180mcu_fd_sc_mcu7t5v0__nor3_4 abstract view
.subckt gf180mcu_fd_sc_mcu7t5v0__nor3_4 A1 A2 A3 ZN VDD VNW VPW VSS
.ends

* Black-box entry subcircuit for gf180mcu_fd_sc_mcu7t5v0__inv_8 abstract view
.subckt gf180mcu_fd_sc_mcu7t5v0__inv_8 I ZN VDD VNW VPW VSS
.ends

* Black-box entry subcircuit for gf180mcu_fd_sc_mcu7t5v0__aoi21_4 abstract view
.subckt gf180mcu_fd_sc_mcu7t5v0__aoi21_4 A1 A2 B ZN VDD VNW VPW VSS
.ends

* Black-box entry subcircuit for gf180mcu_fd_sc_mcu7t5v0__inv_3 abstract view
.subckt gf180mcu_fd_sc_mcu7t5v0__inv_3 I ZN VDD VNW VPW VSS
.ends

* Black-box entry subcircuit for gf180mcu_fd_sc_mcu7t5v0__oai21_2 abstract view
.subckt gf180mcu_fd_sc_mcu7t5v0__oai21_2 A1 A2 B ZN VDD VNW VPW VSS
.ends

* Black-box entry subcircuit for gf180mcu_fd_sc_mcu7t5v0__clkinv_4 abstract view
.subckt gf180mcu_fd_sc_mcu7t5v0__clkinv_4 I ZN VDD VNW VPW VSS
.ends

* Black-box entry subcircuit for gf180mcu_fd_sc_mcu7t5v0__clkbuf_4 abstract view
.subckt gf180mcu_fd_sc_mcu7t5v0__clkbuf_4 I Z VDD VNW VPW VSS
.ends

* Black-box entry subcircuit for gf180mcu_fd_sc_mcu7t5v0__inv_2 abstract view
.subckt gf180mcu_fd_sc_mcu7t5v0__inv_2 I ZN VDD VNW VPW VSS
.ends

* Black-box entry subcircuit for gf180mcu_fd_sc_mcu7t5v0__oai21_4 abstract view
.subckt gf180mcu_fd_sc_mcu7t5v0__oai21_4 A1 A2 B ZN VDD VNW VPW VSS
.ends

* Black-box entry subcircuit for gf180mcu_fd_sc_mcu7t5v0__clkinv_2 abstract view
.subckt gf180mcu_fd_sc_mcu7t5v0__clkinv_2 I ZN VDD VNW VPW VSS
.ends

* Black-box entry subcircuit for gf180mcu_fd_sc_mcu7t5v0__inv_1 abstract view
.subckt gf180mcu_fd_sc_mcu7t5v0__inv_1 I ZN VDD VNW VPW VSS
.ends

* Black-box entry subcircuit for gf180mcu_fd_sc_mcu7t5v0__antenna abstract view
.subckt gf180mcu_fd_sc_mcu7t5v0__antenna I VDD VNW VPW VSS
.ends

.subckt int_ram i_addr[0] i_addr[1] i_addr[2] i_addr[3] i_addr[4] i_addr[5] i_clk
+ i_data[0] i_data[10] i_data[11] i_data[12] i_data[13] i_data[14] i_data[15] i_data[1]
+ i_data[2] i_data[3] i_data[4] i_data[5] i_data[6] i_data[7] i_data[8] i_data[9]
+ i_we o_data[0] o_data[10] o_data[11] o_data[12] o_data[13] o_data[14] o_data[15]
+ o_data[1] o_data[2] o_data[3] o_data[4] o_data[5] o_data[6] o_data[7] o_data[8]
+ o_data[9] vccd1 vssd1
X_05903_ _04591_ _04742_ _04754_ _00957_ vccd1 vccd1 vssd1 vssd1 gf180mcu_fd_sc_mcu7t5v0__oai21_1
XFILLER_0_20_1032 vccd1 vccd1 vssd1 vssd1 gf180mcu_fd_sc_mcu7t5v0__fillcap_16
XFILLER_0_59_1264 vccd1 vccd1 vssd1 vssd1 gf180mcu_fd_sc_mcu7t5v0__fill_1
X_06883_ _01832_ _01833_ _01834_ vccd1 vccd1 vssd1 vssd1 gf180mcu_fd_sc_mcu7t5v0__nand2_1
X_09671_ _04127_ _04110_ _04128_ _00497_ vccd1 vccd1 vssd1 vssd1 gf180mcu_fd_sc_mcu7t5v0__oai21_1
XFILLER_0_20_1065 vccd1 vccd1 vssd1 vssd1 gf180mcu_fd_sc_mcu7t5v0__fillcap_4
XFILLER_0_20_1087 vccd1 vccd1 vssd1 vssd1 gf180mcu_fd_sc_mcu7t5v0__fillcap_4
X_05834_ _04707_ mem\[5\]\[12\] _04716_ vccd1 vccd1 vssd1 vssd1 gf180mcu_fd_sc_mcu7t5v0__nand2_1
X_08622_ _03525_ mem\[6\]\[0\] _03526_ vccd1 vccd1 vssd1 vssd1 gf180mcu_fd_sc_mcu7t5v0__nand2_1
XTAP_TAPCELL_ROW_38_946 vccd1 vssd1 gf180mcu_fd_sc_mcu7t5v0__filltie
X_05765_ _04561_ _04662_ _04677_ _00896_ vccd1 vccd1 vssd1 vssd1 gf180mcu_fd_sc_mcu7t5v0__oai21_1
X_08553_ _03472_ mem\[59\]\[7\] _03482_ vccd1 vccd1 vssd1 vssd1 gf180mcu_fd_sc_mcu7t5v0__nand2_1
XTAP_TAPCELL_ROW_38_957 vccd1 vssd1 gf180mcu_fd_sc_mcu7t5v0__filltie
X_07504_ _02449_ _02450_ _02451_ vccd1 vccd1 vssd1 vssd1 gf180mcu_fd_sc_mcu7t5v0__nand2_1
X_08484_ _01041_ _01484_ _01047_ mem\[30\]\[15\] _03424_ vccd1 vccd1 vssd1 vssd1 gf180mcu_fd_sc_mcu7t5v0__nand4_1
XFILLER_0_65_829 vccd1 vccd1 vssd1 vssd1 gf180mcu_fd_sc_mcu7t5v0__fillcap_4
X_05696_ _04620_ mem\[55\]\[15\] _04639_ vccd1 vccd1 vssd1 vssd1 gf180mcu_fd_sc_mcu7t5v0__nand2_1
XFILLER_0_64_317 vccd1 vccd1 vssd1 vssd1 gf180mcu_fd_sc_mcu7t5v0__fillcap_16
X_07435_ _01369_ _01523_ mem\[44\]\[8\] _02382_ vccd1 vccd1 vssd1 vssd1 gf180mcu_fd_sc_mcu7t5v0__nand3_1
XFILLER_0_58_870 vccd1 vccd1 vssd1 vssd1 gf180mcu_fd_sc_mcu7t5v0__fillcap_4
XFILLER_0_58_892 vccd1 vccd1 vssd1 vssd1 gf180mcu_fd_sc_mcu7t5v0__fill_1
XFILLER_0_18_734 vccd1 vccd1 vssd1 vssd1 gf180mcu_fd_sc_mcu7t5v0__fill_1
XTAP_TAPCELL_ROW_44_1081 vccd1 vssd1 gf180mcu_fd_sc_mcu7t5v0__filltie
XTAP_TAPCELL_ROW_44_1070 vccd1 vssd1 gf180mcu_fd_sc_mcu7t5v0__filltie
X_07366_ _02313_ _01399_ _02314_ vccd1 vccd1 vssd1 vssd1 gf180mcu_fd_sc_mcu7t5v0__nand2_1
XFILLER_0_17_244 vccd1 vccd1 vssd1 vssd1 gf180mcu_fd_sc_mcu7t5v0__fillcap_4
XFILLER_0_73_884 vccd1 vccd1 vssd1 vssd1 gf180mcu_fd_sc_mcu7t5v0__fill_2
XFILLER_0_66_1224 vccd1 vccd1 vssd1 vssd1 gf180mcu_fd_sc_mcu7t5v0__fill_1
X_06317_ _01265_ _01270_ _01271_ vccd1 vccd1 vssd1 vssd1 gf180mcu_fd_sc_mcu7t5v0__nand2_1
XFILLER_0_60_523 vccd1 vccd1 vssd1 vssd1 gf180mcu_fd_sc_mcu7t5v0__fill_2
XFILLER_0_45_586 vccd1 vccd1 vssd1 vssd1 gf180mcu_fd_sc_mcu7t5v0__fillcap_4
X_09105_ _03798_ mem\[17\]\[11\] _03806_ vccd1 vccd1 vssd1 vssd1 gf180mcu_fd_sc_mcu7t5v0__nand2_1
X_07297_ _02241_ _02244_ _02245_ vccd1 vccd1 vssd1 vssd1 gf180mcu_fd_sc_mcu7t5v0__nor2_1
X_06248_ _01201_ _01202_ _01203_ vccd1 vccd1 vssd1 vssd1 gf180mcu_fd_sc_mcu7t5v0__nand2_1
XFILLER_0_33_759 vccd1 vccd1 vssd1 vssd1 gf180mcu_fd_sc_mcu7t5v0__fill_1
XFILLER_0_27_1208 vccd1 vccd1 vssd1 vssd1 gf180mcu_fd_sc_mcu7t5v0__fill_2
X_09036_ _03690_ _03751_ _03766_ _00224_ vccd1 vccd1 vssd1 vssd1 gf180mcu_fd_sc_mcu7t5v0__oai21_1
XFILLER_0_32_225 vccd1 vccd1 vssd1 vssd1 gf180mcu_fd_sc_mcu7t5v0__fillcap_4
XFILLER_0_4_193 vccd1 vccd1 vssd1 vssd1 gf180mcu_fd_sc_mcu7t5v0__fill_2
XFILLER_0_41_781 vccd1 vccd1 vssd1 vssd1 gf180mcu_fd_sc_mcu7t5v0__fill_2
X_06179_ _01062_ mem\[43\]\[0\] _01134_ vccd1 vccd1 vssd1 vssd1 gf180mcu_fd_sc_mcu7t5v0__nand2_1
X_09938_ _00246_ clknet_leaf_1_i_clk mem\[17\]\[3\] vccd1 vccd1 vssd1 vssd1 gf180mcu_fd_sc_mcu7t5v0__dffq_1
X_09869_ _00177_ clknet_leaf_18_i_clk mem\[12\]\[14\] vccd1 vccd1 vssd1 vssd1 gf180mcu_fd_sc_mcu7t5v0__dffq_1
XTAP_TAPCELL_ROW_68_1560 vccd1 vssd1 gf180mcu_fd_sc_mcu7t5v0__filltie
XFILLER_0_68_667 vccd1 vccd1 vssd1 vssd1 gf180mcu_fd_sc_mcu7t5v0__fillcap_16
XFILLER_0_56_807 vccd1 vccd1 vssd1 vssd1 gf180mcu_fd_sc_mcu7t5v0__fillcap_16
XTAP_TAPCELL_ROW_64_1468 vccd1 vssd1 gf180mcu_fd_sc_mcu7t5v0__filltie
XFILLER_0_55_317 vccd1 vccd1 vssd1 vssd1 gf180mcu_fd_sc_mcu7t5v0__fill_1
XTAP_TAPCELL_ROW_64_1479 vccd1 vssd1 gf180mcu_fd_sc_mcu7t5v0__filltie
X_10713_ _01005_ clknet_leaf_43_i_clk mem\[49\]\[10\] vccd1 vccd1 vssd1 vssd1 gf180mcu_fd_sc_mcu7t5v0__dffq_1
X_10644_ _00952_ clknet_leaf_26_i_clk mem\[61\]\[5\] vccd1 vccd1 vssd1 vssd1 gf180mcu_fd_sc_mcu7t5v0__dffq_1
XFILLER_0_64_840 vccd1 vccd1 vssd1 vssd1 gf180mcu_fd_sc_mcu7t5v0__fillcap_16
XFILLER_0_10_1201 vccd1 vccd1 vssd1 vssd1 gf180mcu_fd_sc_mcu7t5v0__fill_1
XTAP_TAPCELL_ROW_24_673 vccd1 vssd1 gf180mcu_fd_sc_mcu7t5v0__filltie
X_10575_ _00883_ clknet_leaf_37_i_clk mem\[57\]\[0\] vccd1 vccd1 vssd1 vssd1 gf180mcu_fd_sc_mcu7t5v0__dffq_1
XFILLER_0_51_512 vccd1 vccd1 vssd1 vssd1 gf180mcu_fd_sc_mcu7t5v0__fillcap_4
XFILLER_0_24_737 vccd1 vccd1 vssd1 vssd1 gf180mcu_fd_sc_mcu7t5v0__fill_1
XFILLER_0_51_578 vccd1 vccd1 vssd1 vssd1 gf180mcu_fd_sc_mcu7t5v0__fillcap_16
XFILLER_0_51_567 vccd1 vccd1 vssd1 vssd1 gf180mcu_fd_sc_mcu7t5v0__fill_2
XFILLER_0_48_37 vccd1 vccd1 vssd1 vssd1 gf180mcu_fd_sc_mcu7t5v0__fillcap_8
XFILLER_0_48_26 vccd1 vccd1 vssd1 vssd1 gf180mcu_fd_sc_mcu7t5v0__fillcap_8
X_10009_ _00317_ clknet_leaf_116_i_clk mem\[21\]\[10\] vccd1 vccd1 vssd1 vssd1 gf180mcu_fd_sc_mcu7t5v0__dffq_1
XFILLER_0_8_1224 vccd1 vccd1 vssd1 vssd1 gf180mcu_fd_sc_mcu7t5v0__fill_1
X_05550_ _04551_ mem\[52\]\[4\] _04552_ vccd1 vccd1 vssd1 vssd1 gf180mcu_fd_sc_mcu7t5v0__nand2_1
XFILLER_0_59_645 vccd1 vccd1 vssd1 vssd1 gf180mcu_fd_sc_mcu7t5v0__fillcap_4
XFILLER_0_8_1279 vccd1 vccd1 vssd1 vssd1 gf180mcu_fd_sc_mcu7t5v0__fill_2
X_05481_ _04365_ _04505_ _04513_ _00776_ vccd1 vccd1 vssd1 vssd1 gf180mcu_fd_sc_mcu7t5v0__oai21_1
XFILLER_0_55_862 vccd1 vccd1 vssd1 vssd1 gf180mcu_fd_sc_mcu7t5v0__fill_1
X_07220_ _02167_ _02168_ _02169_ vccd1 vccd1 vssd1 vssd1 gf180mcu_fd_sc_mcu7t5v0__nand2_1
XFILLER_0_6_403 vccd1 vccd1 vssd1 vssd1 gf180mcu_fd_sc_mcu7t5v0__fill_2
XFILLER_0_15_1189 vccd1 vccd1 vssd1 vssd1 gf180mcu_fd_sc_mcu7t5v0__fill_1
XFILLER_0_54_361 vccd1 vccd1 vssd1 vssd1 gf180mcu_fd_sc_mcu7t5v0__fill_1
X_07151_ _01508_ _01242_ mem\[37\]\[6\] _02100_ vccd1 vccd1 vssd1 vssd1 gf180mcu_fd_sc_mcu7t5v0__nand3_1
X_06102_ _01056_ _01057_ vccd1 vccd1 vssd1 vssd1 gf180mcu_fd_sc_mcu7t5v0__buf_4
XFILLER_0_42_589 vccd1 vccd1 vssd1 vssd1 gf180mcu_fd_sc_mcu7t5v0__fillcap_4
X_07082_ _01253_ _02032_ vccd1 vccd1 vssd1 vssd1 gf180mcu_fd_sc_mcu7t5v0__buf_2
XFILLER_0_2_664 vccd1 vccd1 vssd1 vssd1 gf180mcu_fd_sc_mcu7t5v0__fill_1
X_06033_ _04820_ _04827_ vccd1 vccd1 vssd1 vssd1 gf180mcu_fd_sc_mcu7t5v0__clkbuf_3
XFILLER_0_10_464 vccd1 vccd1 vssd1 vssd1 gf180mcu_fd_sc_mcu7t5v0__fill_1
XFILLER_0_10_486 vccd1 vccd1 vssd1 vssd1 gf180mcu_fd_sc_mcu7t5v0__fill_2
X_07984_ _02925_ _02926_ _02927_ vccd1 vccd1 vssd1 vssd1 gf180mcu_fd_sc_mcu7t5v0__nand2_1
X_09723_ _00031_ clknet_leaf_30_i_clk mem\[59\]\[12\] vccd1 vccd1 vssd1 vssd1 gf180mcu_fd_sc_mcu7t5v0__dffq_1
X_06935_ _01390_ mem\[7\]\[4\] _01886_ vccd1 vccd1 vssd1 vssd1 gf180mcu_fd_sc_mcu7t5v0__nand2_1
X_09654_ _04115_ mem\[32\]\[7\] _04119_ vccd1 vccd1 vssd1 vssd1 gf180mcu_fd_sc_mcu7t5v0__nand2_1
X_06866_ _01808_ _01816_ _01817_ vccd1 vccd1 vssd1 vssd1 gf180mcu_fd_sc_mcu7t5v0__nand2_1
X_05817_ _04700_ _04707_ vccd1 vccd1 vssd1 vssd1 gf180mcu_fd_sc_mcu7t5v0__buf_2
X_08605_ _03508_ mem\[63\]\[10\] _03515_ vccd1 vccd1 vssd1 vssd1 gf180mcu_fd_sc_mcu7t5v0__nand2_1
X_06797_ _01404_ _01405_ mem\[11\]\[3\] _01749_ vccd1 vccd1 vssd1 vssd1 gf180mcu_fd_sc_mcu7t5v0__nand3_1
XFILLER_0_49_133 vccd1 vccd1 vssd1 vssd1 gf180mcu_fd_sc_mcu7t5v0__fillcap_4
XTAP_TAPCELL_ROW_46_1110 vccd1 vssd1 gf180mcu_fd_sc_mcu7t5v0__filltie
X_09585_ _03935_ _04069_ _04080_ _00459_ vccd1 vccd1 vssd1 vssd1 gf180mcu_fd_sc_mcu7t5v0__oai21_1
X_05748_ _04667_ mem\[57\]\[5\] _04669_ vccd1 vccd1 vssd1 vssd1 gf180mcu_fd_sc_mcu7t5v0__nand2_1
X_08536_ _03459_ mem\[59\]\[3\] _03469_ vccd1 vccd1 vssd1 vssd1 gf180mcu_fd_sc_mcu7t5v0__nand2_1
XTAP_TAPCELL_ROW_46_1121 vccd1 vssd1 gf180mcu_fd_sc_mcu7t5v0__filltie
X_05679_ _04583_ _04621_ _04630_ _00857_ vccd1 vccd1 vssd1 vssd1 gf180mcu_fd_sc_mcu7t5v0__oai21_1
XFILLER_0_37_328 vccd1 vccd1 vssd1 vssd1 gf180mcu_fd_sc_mcu7t5v0__fill_1
XFILLER_0_37_317 vccd1 vccd1 vssd1 vssd1 gf180mcu_fd_sc_mcu7t5v0__fill_1
XFILLER_0_33_1278 vccd1 vccd1 vssd1 vssd1 gf180mcu_fd_sc_mcu7t5v0__fill_2
X_08467_ _01067_ _01487_ mem\[21\]\[15\] _03407_ vccd1 vccd1 vssd1 vssd1 gf180mcu_fd_sc_mcu7t5v0__nand3_1
X_08398_ _01415_ _01273_ mem\[51\]\[15\] _03338_ vccd1 vccd1 vssd1 vssd1 gf180mcu_fd_sc_mcu7t5v0__nand3_1
XFILLER_0_52_309 vccd1 vccd1 vssd1 vssd1 gf180mcu_fd_sc_mcu7t5v0__fillcap_4
X_07418_ _02298_ _02365_ _00013_ vccd1 vccd1 vssd1 vssd1 gf180mcu_fd_sc_mcu7t5v0__nand2_2
XTAP_TAPCELL_ROW_42_1029 vccd1 vssd1 gf180mcu_fd_sc_mcu7t5v0__filltie
XFILLER_0_33_1289 vccd1 vccd1 vssd1 vssd1 gf180mcu_fd_sc_mcu7t5v0__fillcap_32
XTAP_TAPCELL_ROW_21_610 vccd1 vssd1 gf180mcu_fd_sc_mcu7t5v0__filltie
XTAP_TAPCELL_ROW_21_621 vccd1 vssd1 gf180mcu_fd_sc_mcu7t5v0__filltie
XFILLER_0_73_670 vccd1 vccd1 vssd1 vssd1 gf180mcu_fd_sc_mcu7t5v0__fillcap_4
X_07349_ _02280_ _02296_ _02297_ vccd1 vccd1 vssd1 vssd1 gf180mcu_fd_sc_mcu7t5v0__nand2_1
XFILLER_0_33_512 vccd1 vccd1 vssd1 vssd1 gf180mcu_fd_sc_mcu7t5v0__fill_2
XFILLER_0_45_394 vccd1 vccd1 vssd1 vssd1 gf180mcu_fd_sc_mcu7t5v0__fillcap_8
XFILLER_0_33_556 vccd1 vccd1 vssd1 vssd1 gf180mcu_fd_sc_mcu7t5v0__fillcap_4
X_10360_ _00668_ clknet_leaf_57_i_clk mem\[43\]\[9\] vccd1 vccd1 vssd1 vssd1 gf180mcu_fd_sc_mcu7t5v0__dffq_1
X_10291_ _00599_ clknet_leaf_66_i_clk mem\[3\]\[4\] vccd1 vccd1 vssd1 vssd1 gf180mcu_fd_sc_mcu7t5v0__dffq_1
XFILLER_0_14_792 vccd1 vccd1 vssd1 vssd1 gf180mcu_fd_sc_mcu7t5v0__fill_2
X_09019_ _03756_ mem\[15\]\[5\] _03758_ vccd1 vccd1 vssd1 vssd1 gf180mcu_fd_sc_mcu7t5v0__nand2_1
XFILLER_0_40_1205 vccd1 vccd1 vssd1 vssd1 gf180mcu_fd_sc_mcu7t5v0__fill_1
Xclkbuf_leaf_52_i_clk clknet_4_15__leaf_i_clk clknet_leaf_52_i_clk vccd1 vccd1 vssd1
+ vssd1 gf180mcu_fd_sc_mcu7t5v0__clkbuf_16
XTAP_TAPCELL_ROW_66_1519 vccd1 vssd1 gf180mcu_fd_sc_mcu7t5v0__filltie
XTAP_TAPCELL_ROW_66_1508 vccd1 vssd1 gf180mcu_fd_sc_mcu7t5v0__filltie
XTAP_TAPCELL_ROW_29_765 vccd1 vssd1 gf180mcu_fd_sc_mcu7t5v0__filltie
XTAP_TAPCELL_ROW_29_776 vccd1 vssd1 gf180mcu_fd_sc_mcu7t5v0__filltie
Xclkbuf_leaf_67_i_clk clknet_4_14__leaf_i_clk clknet_leaf_67_i_clk vccd1 vccd1 vssd1
+ vssd1 gf180mcu_fd_sc_mcu7t5v0__clkbuf_16
XFILLER_0_51_1323 vccd1 vccd1 vssd1 vssd1 gf180mcu_fd_sc_mcu7t5v0__fill_2
XFILLER_0_51_1334 vccd1 vccd1 vssd1 vssd1 gf180mcu_fd_sc_mcu7t5v0__fill_1
XFILLER_0_28_317 vccd1 vccd1 vssd1 vssd1 gf180mcu_fd_sc_mcu7t5v0__fill_2
XFILLER_0_50_49 vccd1 vccd1 vssd1 vssd1 gf180mcu_fd_sc_mcu7t5v0__fill_1
XFILLER_0_71_629 vccd1 vccd1 vssd1 vssd1 gf180mcu_fd_sc_mcu7t5v0__fill_1
X_10627_ _00935_ clknet_leaf_25_i_clk mem\[60\]\[4\] vccd1 vccd1 vssd1 vssd1 gf180mcu_fd_sc_mcu7t5v0__dffq_1
XTAP_TAPCELL_ROW_40_996 vccd1 vssd1 gf180mcu_fd_sc_mcu7t5v0__filltie
XTAP_TAPCELL_ROW_40_985 vccd1 vssd1 gf180mcu_fd_sc_mcu7t5v0__filltie
XFILLER_0_36_383 vccd1 vccd1 vssd1 vssd1 gf180mcu_fd_sc_mcu7t5v0__fill_2
XFILLER_0_3_417 vccd1 vccd1 vssd1 vssd1 gf180mcu_fd_sc_mcu7t5v0__fill_2
XFILLER_0_24_545 vccd1 vccd1 vssd1 vssd1 gf180mcu_fd_sc_mcu7t5v0__fill_1
X_10558_ _00866_ clknet_leaf_46_i_clk mem\[55\]\[15\] vccd1 vccd1 vssd1 vssd1 gf180mcu_fd_sc_mcu7t5v0__dffq_1
XFILLER_0_10_1097 vccd1 vccd1 vssd1 vssd1 gf180mcu_fd_sc_mcu7t5v0__fillcap_8
XFILLER_0_59_58 vccd1 vccd1 vssd1 vssd1 gf180mcu_fd_sc_mcu7t5v0__fillcap_8
X_10489_ _00797_ clknet_leaf_49_i_clk mem\[51\]\[10\] vccd1 vccd1 vssd1 vssd1 gf180mcu_fd_sc_mcu7t5v0__dffq_1
X_04981_ _04226_ net76 _04227_ vccd1 vccd1 vssd1 vssd1 gf180mcu_fd_sc_mcu7t5v0__nand2_2
X_06720_ _01058_ _01247_ mem\[34\]\[3\] _01672_ vccd1 vccd1 vssd1 vssd1 gf180mcu_fd_sc_mcu7t5v0__nand3_1
XFILLER_0_56_1245 vccd1 vccd1 vssd1 vssd1 gf180mcu_fd_sc_mcu7t5v0__fillcap_16
XFILLER_0_56_1223 vccd1 vccd1 vssd1 vssd1 gf180mcu_fd_sc_mcu7t5v0__fill_2
X_06651_ _01313_ _01604_ vccd1 vccd1 vssd1 vssd1 gf180mcu_fd_sc_mcu7t5v0__buf_2
XFILLER_0_59_431 vccd1 vccd1 vssd1 vssd1 gf180mcu_fd_sc_mcu7t5v0__fillcap_8
X_05602_ _03480_ _04585_ vccd1 vccd1 vssd1 vssd1 gf180mcu_fd_sc_mcu7t5v0__buf_4
XFILLER_0_8_1021 vccd1 vccd1 vssd1 vssd1 gf180mcu_fd_sc_mcu7t5v0__fill_1
X_06582_ _01171_ _01535_ vccd1 vccd1 vssd1 vssd1 gf180mcu_fd_sc_mcu7t5v0__buf_2
X_09370_ _03955_ mem\[24\]\[9\] _03961_ vccd1 vccd1 vssd1 vssd1 gf180mcu_fd_sc_mcu7t5v0__nand2_1
X_05533_ _04345_ _04526_ _04541_ _00800_ vccd1 vccd1 vssd1 vssd1 gf180mcu_fd_sc_mcu7t5v0__oai21_1
X_08321_ _03260_ _03261_ _03262_ vccd1 vccd1 vssd1 vssd1 gf180mcu_fd_sc_mcu7t5v0__nand2_1
XFILLER_0_46_103 vccd1 vccd1 vssd1 vssd1 gf180mcu_fd_sc_mcu7t5v0__fill_2
XFILLER_0_8_1087 vccd1 vccd1 vssd1 vssd1 gf180mcu_fd_sc_mcu7t5v0__fillcap_8
XFILLER_0_62_607 vccd1 vccd1 vssd1 vssd1 gf180mcu_fd_sc_mcu7t5v0__fill_1
X_08252_ _01974_ _01298_ mem\[42\]\[14\] _03193_ vccd1 vccd1 vssd1 vssd1 gf180mcu_fd_sc_mcu7t5v0__nand3_1
XFILLER_0_46_147 vccd1 vccd1 vssd1 vssd1 gf180mcu_fd_sc_mcu7t5v0__fill_1
X_05464_ _04484_ mem\[4\]\[15\] _04503_ vccd1 vccd1 vssd1 vssd1 gf180mcu_fd_sc_mcu7t5v0__nand2_1
X_07203_ _02148_ _02151_ _02152_ vccd1 vccd1 vssd1 vssd1 gf180mcu_fd_sc_mcu7t5v0__nor2_1
XFILLER_0_15_512 vccd1 vccd1 vssd1 vssd1 gf180mcu_fd_sc_mcu7t5v0__fill_1
XTAP_TAPCELL_ROW_15_492 vccd1 vssd1 gf180mcu_fd_sc_mcu7t5v0__filltie
XFILLER_0_28_873 vccd1 vccd1 vssd1 vssd1 gf180mcu_fd_sc_mcu7t5v0__fill_2
X_05395_ _04464_ _04465_ vccd1 vccd1 vssd1 vssd1 gf180mcu_fd_sc_mcu7t5v0__clkbuf_3
XFILLER_0_43_832 vccd1 vccd1 vssd1 vssd1 gf180mcu_fd_sc_mcu7t5v0__fill_2
X_08183_ _03121_ _03124_ _03125_ vccd1 vccd1 vssd1 vssd1 gf180mcu_fd_sc_mcu7t5v0__nor2_1
XFILLER_0_40_71 vccd1 vccd1 vssd1 vssd1 gf180mcu_fd_sc_mcu7t5v0__fill_1
XFILLER_0_7_789 vccd1 vccd1 vssd1 vssd1 gf180mcu_fd_sc_mcu7t5v0__fill_1
XFILLER_0_70_662 vccd1 vccd1 vssd1 vssd1 gf180mcu_fd_sc_mcu7t5v0__fill_2
XFILLER_0_43_876 vccd1 vccd1 vssd1 vssd1 gf180mcu_fd_sc_mcu7t5v0__fill_2
X_07134_ _02082_ _02083_ _02084_ vccd1 vccd1 vssd1 vssd1 gf180mcu_fd_sc_mcu7t5v0__nand2_1
X_07065_ _01575_ mem\[63\]\[5\] _02015_ vccd1 vccd1 vssd1 vssd1 gf180mcu_fd_sc_mcu7t5v0__nand2_1
XFILLER_0_42_375 vccd1 vccd1 vssd1 vssd1 gf180mcu_fd_sc_mcu7t5v0__fill_1
XFILLER_0_64_2 vccd1 vccd1 vssd1 vssd1 gf180mcu_fd_sc_mcu7t5v0__fillcap_32
X_06016_ _04807_ mem\[49\]\[13\] _04817_ vccd1 vccd1 vssd1 vssd1 gf180mcu_fd_sc_mcu7t5v0__nand2_1
XFILLER_0_11_740 vccd1 vccd1 vssd1 vssd1 gf180mcu_fd_sc_mcu7t5v0__fillcap_4
XFILLER_0_26_1071 vccd1 vccd1 vssd1 vssd1 gf180mcu_fd_sc_mcu7t5v0__fill_2
XPHY_EDGE_ROW_58_Left_139 vccd1 vssd1 gf180mcu_fd_sc_mcu7t5v0__endcap
X_07967_ _01957_ _01810_ mem\[33\]\[12\] _02910_ vccd1 vccd1 vssd1 vssd1 gf180mcu_fd_sc_mcu7t5v0__nand3_1
X_06918_ _01867_ _01868_ _01869_ vccd1 vccd1 vssd1 vssd1 gf180mcu_fd_sc_mcu7t5v0__nand2_1
X_09706_ _03486_ _04153_ vccd1 vccd1 vssd1 vssd1 gf180mcu_fd_sc_mcu7t5v0__buf_4
X_07898_ _02030_ _01594_ mem\[2\]\[11\] _02842_ vccd1 vccd1 vssd1 vssd1 gf180mcu_fd_sc_mcu7t5v0__nand3_1
XFILLER_0_74_1367 vccd1 vccd1 vssd1 vssd1 gf180mcu_fd_sc_mcu7t5v0__fillcap_4
XFILLER_0_35_1307 vccd1 vccd1 vssd1 vssd1 gf180mcu_fd_sc_mcu7t5v0__fillcap_8
X_06849_ _01764_ _01800_ _01801_ vccd1 vccd1 vssd1 vssd1 gf180mcu_fd_sc_mcu7t5v0__nor2_2
X_09637_ _04108_ _04109_ vccd1 vccd1 vssd1 vssd1 gf180mcu_fd_sc_mcu7t5v0__clkbuf_3
XTAP_TAPCELL_ROW_26_713 vccd1 vssd1 gf180mcu_fd_sc_mcu7t5v0__filltie
XFILLER_0_78_751 vccd1 vccd1 vssd1 vssd1 gf180mcu_fd_sc_mcu7t5v0__fill_1
X_09568_ _03915_ _04069_ _04071_ _00451_ vccd1 vccd1 vssd1 vssd1 gf180mcu_fd_sc_mcu7t5v0__oai21_1
XPHY_EDGE_ROW_67_Left_148 vccd1 vssd1 gf180mcu_fd_sc_mcu7t5v0__endcap
XTAP_TAPCELL_ROW_61_1405 vccd1 vssd1 gf180mcu_fd_sc_mcu7t5v0__filltie
X_08519_ _01266_ _01043_ _03455_ vccd1 vccd1 vssd1 vssd1 gf180mcu_fd_sc_mcu7t5v0__nand2_2
XFILLER_0_77_294 vccd1 vccd1 vssd1 vssd1 gf180mcu_fd_sc_mcu7t5v0__fill_2
XFILLER_0_65_456 vccd1 vccd1 vssd1 vssd1 gf180mcu_fd_sc_mcu7t5v0__fillcap_16
XTAP_TAPCELL_ROW_61_1416 vccd1 vssd1 gf180mcu_fd_sc_mcu7t5v0__filltie
X_09499_ _04030_ mem\[28\]\[2\] _04033_ vccd1 vccd1 vssd1 vssd1 gf180mcu_fd_sc_mcu7t5v0__nand2_1
XFILLER_0_53_629 vccd1 vccd1 vssd1 vssd1 gf180mcu_fd_sc_mcu7t5v0__fill_1
XFILLER_0_33_1097 vccd1 vccd1 vssd1 vssd1 gf180mcu_fd_sc_mcu7t5v0__fill_2
XFILLER_0_25_309 vccd1 vccd1 vssd1 vssd1 gf180mcu_fd_sc_mcu7t5v0__fill_1
XFILLER_0_68_1138 vccd1 vccd1 vssd1 vssd1 gf180mcu_fd_sc_mcu7t5v0__fill_1
XFILLER_0_46_681 vccd1 vccd1 vssd1 vssd1 gf180mcu_fd_sc_mcu7t5v0__fill_1
XFILLER_0_33_331 vccd1 vccd1 vssd1 vssd1 gf180mcu_fd_sc_mcu7t5v0__fillcap_8
X_10412_ _00720_ clknet_leaf_53_i_clk mem\[46\]\[13\] vccd1 vccd1 vssd1 vssd1 gf180mcu_fd_sc_mcu7t5v0__dffq_1
XTAP_TAPCELL_ROW_59_1367 vccd1 vssd1 gf180mcu_fd_sc_mcu7t5v0__filltie
X_10343_ _00651_ clknet_leaf_63_i_clk mem\[42\]\[8\] vccd1 vccd1 vssd1 vssd1 gf180mcu_fd_sc_mcu7t5v0__dffq_1
XFILLER_0_60_194 vccd1 vccd1 vssd1 vssd1 gf180mcu_fd_sc_mcu7t5v0__fill_2
XTAP_TAPCELL_ROW_59_1378 vccd1 vssd1 gf180mcu_fd_sc_mcu7t5v0__filltie
XPHY_EDGE_ROW_76_Left_157 vccd1 vssd1 gf180mcu_fd_sc_mcu7t5v0__endcap
XFILLER_0_40_1013 vccd1 vccd1 vssd1 vssd1 gf180mcu_fd_sc_mcu7t5v0__fill_2
X_10274_ _00582_ clknet_leaf_82_i_clk mem\[38\]\[3\] vccd1 vccd1 vssd1 vssd1 gf180mcu_fd_sc_mcu7t5v0__dffq_1
XFILLER_0_79_1245 vccd1 vccd1 vssd1 vssd1 gf180mcu_fd_sc_mcu7t5v0__fillcap_4
XFILLER_0_79_1267 vccd1 vccd1 vssd1 vssd1 gf180mcu_fd_sc_mcu7t5v0__fillcap_32
XFILLER_0_16_1240 vccd1 vccd1 vssd1 vssd1 gf180mcu_fd_sc_mcu7t5v0__fill_2
XFILLER_0_29_637 vccd1 vccd1 vssd1 vssd1 gf180mcu_fd_sc_mcu7t5v0__fillcap_8
XFILLER_0_57_979 vccd1 vccd1 vssd1 vssd1 gf180mcu_fd_sc_mcu7t5v0__fill_1
XFILLER_0_28_125 vccd1 vccd1 vssd1 vssd1 gf180mcu_fd_sc_mcu7t5v0__fill_1
XFILLER_0_29_659 vccd1 vccd1 vssd1 vssd1 gf180mcu_fd_sc_mcu7t5v0__fillcap_32
XFILLER_0_71_426 vccd1 vccd1 vssd1 vssd1 gf180mcu_fd_sc_mcu7t5v0__fill_2
XFILLER_0_56_467 vccd1 vccd1 vssd1 vssd1 gf180mcu_fd_sc_mcu7t5v0__fillcap_4
XFILLER_0_12_1137 vccd1 vccd1 vssd1 vssd1 gf180mcu_fd_sc_mcu7t5v0__fillcap_8
XFILLER_0_43_139 vccd1 vccd1 vssd1 vssd1 gf180mcu_fd_sc_mcu7t5v0__fill_1
XTAP_TAPCELL_ROW_12_440 vccd1 vssd1 gf180mcu_fd_sc_mcu7t5v0__filltie
X_05180_ _04335_ mem\[42\]\[7\] _04339_ vccd1 vccd1 vssd1 vssd1 gf180mcu_fd_sc_mcu7t5v0__nand2_1
XFILLER_0_36_191 vccd1 vccd1 vssd1 vssd1 gf180mcu_fd_sc_mcu7t5v0__fill_1
XFILLER_0_51_183 vccd1 vccd1 vssd1 vssd1 gf180mcu_fd_sc_mcu7t5v0__fillcap_4
XFILLER_0_51_150 vccd1 vccd1 vssd1 vssd1 gf180mcu_fd_sc_mcu7t5v0__fillcap_4
XFILLER_0_40_835 vccd1 vccd1 vssd1 vssd1 gf180mcu_fd_sc_mcu7t5v0__fillcap_4
XFILLER_0_24_375 vccd1 vccd1 vssd1 vssd1 gf180mcu_fd_sc_mcu7t5v0__fillcap_8
XFILLER_0_0_954 vccd1 vccd1 vssd1 vssd1 gf180mcu_fd_sc_mcu7t5v0__fillcap_32
X_08870_ _03490_ _03655_ _03667_ _00157_ vccd1 vccd1 vssd1 vssd1 gf180mcu_fd_sc_mcu7t5v0__oai21_1
XFILLER_0_19_50 vccd1 vccd1 vssd1 vssd1 gf180mcu_fd_sc_mcu7t5v0__fillcap_8
X_07821_ _02749_ _02765_ _02766_ vccd1 vccd1 vssd1 vssd1 gf180mcu_fd_sc_mcu7t5v0__nand2_1
XFILLER_0_23_1288 vccd1 vccd1 vssd1 vssd1 gf180mcu_fd_sc_mcu7t5v0__fill_2
X_07752_ _02689_ _02696_ _02697_ vccd1 vccd1 vssd1 vssd1 gf180mcu_fd_sc_mcu7t5v0__nand2_1
X_04964_ _04213_ mem\[36\]\[8\] _04218_ vccd1 vccd1 vssd1 vssd1 gf180mcu_fd_sc_mcu7t5v0__nand2_1
X_07683_ _02625_ _02628_ _02629_ vccd1 vccd1 vssd1 vssd1 gf180mcu_fd_sc_mcu7t5v0__nor2_1
X_04895_ _04172_ mem\[34\]\[10\] _04179_ vccd1 vccd1 vssd1 vssd1 gf180mcu_fd_sc_mcu7t5v0__nand2_1
X_06703_ _01490_ _01190_ _01491_ mem\[31\]\[2\] _01656_ vccd1 vccd1 vssd1 vssd1 gf180mcu_fd_sc_mcu7t5v0__nand4_1
XFILLER_0_56_1075 vccd1 vccd1 vssd1 vssd1 gf180mcu_fd_sc_mcu7t5v0__fillcap_4
X_06634_ _01372_ _01373_ mem\[3\]\[2\] _01587_ vccd1 vccd1 vssd1 vssd1 gf180mcu_fd_sc_mcu7t5v0__nand3_1
XFILLER_0_35_93 vccd1 vccd1 vssd1 vssd1 gf180mcu_fd_sc_mcu7t5v0__fill_1
X_09422_ _03988_ _03990_ vccd1 vccd1 vssd1 vssd1 gf180mcu_fd_sc_mcu7t5v0__clkbuf_3
XFILLER_0_75_732 vccd1 vccd1 vssd1 vssd1 gf180mcu_fd_sc_mcu7t5v0__fillcap_8
X_09353_ _03950_ mem\[24\]\[1\] _03952_ vccd1 vccd1 vssd1 vssd1 gf180mcu_fd_sc_mcu7t5v0__nand2_1
XFILLER_0_19_114 vccd1 vccd1 vssd1 vssd1 gf180mcu_fd_sc_mcu7t5v0__fill_1
XFILLER_0_74_242 vccd1 vccd1 vssd1 vssd1 gf180mcu_fd_sc_mcu7t5v0__fill_2
XFILLER_0_47_445 vccd1 vccd1 vssd1 vssd1 gf180mcu_fd_sc_mcu7t5v0__fillcap_4
X_08304_ _02032_ _01377_ mem\[1\]\[14\] _03245_ vccd1 vccd1 vssd1 vssd1 gf180mcu_fd_sc_mcu7t5v0__nand3_1
X_06565_ _01254_ _01256_ mem\[32\]\[2\] _01518_ vccd1 vccd1 vssd1 vssd1 gf180mcu_fd_sc_mcu7t5v0__nand3_1
X_05516_ _04531_ mem\[51\]\[5\] _04533_ vccd1 vccd1 vssd1 vssd1 gf180mcu_fd_sc_mcu7t5v0__nand2_1
XFILLER_0_47_478 vccd1 vccd1 vssd1 vssd1 gf180mcu_fd_sc_mcu7t5v0__fill_1
XFILLER_0_35_629 vccd1 vccd1 vssd1 vssd1 gf180mcu_fd_sc_mcu7t5v0__fill_1
XFILLER_0_35_618 vccd1 vccd1 vssd1 vssd1 gf180mcu_fd_sc_mcu7t5v0__fillcap_4
X_09284_ _03899_ mem\[22\]\[10\] _03906_ vccd1 vccd1 vssd1 vssd1 gf180mcu_fd_sc_mcu7t5v0__nand2_1
XFILLER_0_19_158 vccd1 vccd1 vssd1 vssd1 gf180mcu_fd_sc_mcu7t5v0__fillcap_8
X_06496_ _01255_ _01450_ vccd1 vccd1 vssd1 vssd1 gf180mcu_fd_sc_mcu7t5v0__buf_4
X_05447_ _04367_ _04485_ _04494_ _00761_ vccd1 vccd1 vssd1 vssd1 gf180mcu_fd_sc_mcu7t5v0__oai21_1
X_08235_ _03172_ _03175_ _03176_ vccd1 vccd1 vssd1 vssd1 gf180mcu_fd_sc_mcu7t5v0__nor2_1
X_05378_ _04451_ mem\[47\]\[8\] _04456_ vccd1 vccd1 vssd1 vssd1 gf180mcu_fd_sc_mcu7t5v0__nand2_1
X_08166_ _03106_ _03107_ _03108_ vccd1 vccd1 vssd1 vssd1 gf180mcu_fd_sc_mcu7t5v0__nand2_1
XFILLER_0_67_1171 vccd1 vccd1 vssd1 vssd1 gf180mcu_fd_sc_mcu7t5v0__fillcap_16
X_07117_ _01266_ _02067_ vccd1 vccd1 vssd1 vssd1 gf180mcu_fd_sc_mcu7t5v0__buf_2
XFILLER_0_63_1046 vccd1 vccd1 vssd1 vssd1 gf180mcu_fd_sc_mcu7t5v0__fillcap_4