* NGSPICE file created from interconnect_inner.ext - technology: sky130A

* Black-box entry subcircuit for sky130_fd_sc_hd__decap_8 abstract view
.subckt sky130_fd_sc_hd__decap_8 VGND VNB VPB VPWR
.ends

* Black-box entry subcircuit for sky130_fd_sc_hd__fill_2 abstract view
.subckt sky130_fd_sc_hd__fill_2 VGND VNB VPB VPWR
.ends

* Black-box entry subcircuit for sky130_fd_sc_hd__decap_4 abstract view
.subckt sky130_fd_sc_hd__decap_4 VGND VNB VPB VPWR
.ends

* Black-box entry subcircuit for sky130_fd_sc_hd__clkbuf_16 abstract view
.subckt sky130_fd_sc_hd__clkbuf_16 A VGND VNB VPB VPWR X
.ends

* Black-box entry subcircuit for sky130_fd_sc_hd__diode_2 abstract view
.subckt sky130_fd_sc_hd__diode_2 DIODE VGND VNB VPB VPWR
.ends

* Black-box entry subcircuit for sky130_fd_sc_hd__fill_1 abstract view
.subckt sky130_fd_sc_hd__fill_1 VGND VNB VPB VPWR
.ends

* Black-box entry subcircuit for sky130_ef_sc_hd__decap_12 abstract view
.subckt sky130_ef_sc_hd__decap_12 VGND VNB VPB VPWR
.ends

* Black-box entry subcircuit for sky130_fd_sc_hd__decap_6 abstract view
.subckt sky130_fd_sc_hd__decap_6 VGND VNB VPB VPWR
.ends

* Black-box entry subcircuit for sky130_fd_sc_hd__dfxtp_1 abstract view
.subckt sky130_fd_sc_hd__dfxtp_1 CLK D VGND VNB VPB VPWR Q
.ends

* Black-box entry subcircuit for sky130_fd_sc_hd__decap_3 abstract view
.subckt sky130_fd_sc_hd__decap_3 VGND VNB VPB VPWR
.ends

* Black-box entry subcircuit for sky130_fd_sc_hd__mux2_1 abstract view
.subckt sky130_fd_sc_hd__mux2_1 A0 A1 S VGND VNB VPB VPWR X
.ends

* Black-box entry subcircuit for sky130_fd_sc_hd__clkbuf_1 abstract view
.subckt sky130_fd_sc_hd__clkbuf_1 A VGND VNB VPB VPWR X
.ends

* Black-box entry subcircuit for sky130_fd_sc_hd__and3_1 abstract view
.subckt sky130_fd_sc_hd__and3_1 A B C VGND VNB VPB VPWR X
.ends

* Black-box entry subcircuit for sky130_fd_sc_hd__a21o_1 abstract view
.subckt sky130_fd_sc_hd__a21o_1 A1 A2 B1 VGND VNB VPB VPWR X
.ends

* Black-box entry subcircuit for sky130_fd_sc_hd__clkbuf_4 abstract view
.subckt sky130_fd_sc_hd__clkbuf_4 A VGND VNB VPB VPWR X
.ends

* Black-box entry subcircuit for sky130_fd_sc_hd__tapvpwrvgnd_1 abstract view
.subckt sky130_fd_sc_hd__tapvpwrvgnd_1 VGND VPWR
.ends

* Black-box entry subcircuit for sky130_fd_sc_hd__buf_6 abstract view
.subckt sky130_fd_sc_hd__buf_6 A VGND VNB VPB VPWR X
.ends

* Black-box entry subcircuit for sky130_fd_sc_hd__a31o_1 abstract view
.subckt sky130_fd_sc_hd__a31o_1 A1 A2 A3 B1 VGND VNB VPB VPWR X
.ends

* Black-box entry subcircuit for sky130_fd_sc_hd__and2_1 abstract view
.subckt sky130_fd_sc_hd__and2_1 A B VGND VNB VPB VPWR X
.ends

* Black-box entry subcircuit for sky130_fd_sc_hd__buf_2 abstract view
.subckt sky130_fd_sc_hd__buf_2 A VGND VNB VPB VPWR X
.ends

* Black-box entry subcircuit for sky130_fd_sc_hd__nor2_1 abstract view
.subckt sky130_fd_sc_hd__nor2_1 A B VGND VNB VPB VPWR Y
.ends

* Black-box entry subcircuit for sky130_fd_sc_hd__clkbuf_2 abstract view
.subckt sky130_fd_sc_hd__clkbuf_2 A VGND VNB VPB VPWR X
.ends

* Black-box entry subcircuit for sky130_fd_sc_hd__or2_1 abstract view
.subckt sky130_fd_sc_hd__or2_1 A B VGND VNB VPB VPWR X
.ends

* Black-box entry subcircuit for sky130_fd_sc_hd__mux4_1 abstract view
.subckt sky130_fd_sc_hd__mux4_1 A0 A1 A2 A3 S0 S1 VGND VNB VPB VPWR X
.ends

* Black-box entry subcircuit for sky130_fd_sc_hd__o31a_1 abstract view
.subckt sky130_fd_sc_hd__o31a_1 A1 A2 A3 B1 VGND VNB VPB VPWR X
.ends

* Black-box entry subcircuit for sky130_fd_sc_hd__mux2_4 abstract view
.subckt sky130_fd_sc_hd__mux2_4 A0 A1 S VGND VNB VPB VPWR X
.ends

* Black-box entry subcircuit for sky130_fd_sc_hd__nand2_1 abstract view
.subckt sky130_fd_sc_hd__nand2_1 A B VGND VNB VPB VPWR Y
.ends

* Black-box entry subcircuit for sky130_fd_sc_hd__a31oi_1 abstract view
.subckt sky130_fd_sc_hd__a31oi_1 A1 A2 A3 B1 VGND VNB VPB VPWR Y
.ends

* Black-box entry subcircuit for sky130_fd_sc_hd__mux4_2 abstract view
.subckt sky130_fd_sc_hd__mux4_2 A0 A1 A2 A3 S0 S1 VGND VNB VPB VPWR X
.ends

* Black-box entry subcircuit for sky130_fd_sc_hd__nor2_4 abstract view
.subckt sky130_fd_sc_hd__nor2_4 A B VGND VNB VPB VPWR Y
.ends

* Black-box entry subcircuit for sky130_fd_sc_hd__mux2_2 abstract view
.subckt sky130_fd_sc_hd__mux2_2 A0 A1 S VGND VNB VPB VPWR X
.ends

* Black-box entry subcircuit for sky130_fd_sc_hd__or2_2 abstract view
.subckt sky130_fd_sc_hd__or2_2 A B VGND VNB VPB VPWR X
.ends

* Black-box entry subcircuit for sky130_fd_sc_hd__nor3_1 abstract view
.subckt sky130_fd_sc_hd__nor3_1 A B C VGND VNB VPB VPWR Y
.ends

* Black-box entry subcircuit for sky130_fd_sc_hd__o22a_2 abstract view
.subckt sky130_fd_sc_hd__o22a_2 A1 A2 B1 B2 VGND VNB VPB VPWR X
.ends

* Black-box entry subcircuit for sky130_fd_sc_hd__buf_4 abstract view
.subckt sky130_fd_sc_hd__buf_4 A VGND VNB VPB VPWR X
.ends

* Black-box entry subcircuit for sky130_fd_sc_hd__o21a_1 abstract view
.subckt sky130_fd_sc_hd__o21a_1 A1 A2 B1 VGND VNB VPB VPWR X
.ends

* Black-box entry subcircuit for sky130_fd_sc_hd__dlymetal6s2s_1 abstract view
.subckt sky130_fd_sc_hd__dlymetal6s2s_1 A VGND VNB VPB VPWR X
.ends

* Black-box entry subcircuit for sky130_fd_sc_hd__buf_8 abstract view
.subckt sky130_fd_sc_hd__buf_8 A VGND VNB VPB VPWR X
.ends

* Black-box entry subcircuit for sky130_fd_sc_hd__a21oi_1 abstract view
.subckt sky130_fd_sc_hd__a21oi_1 A1 A2 B1 VGND VNB VPB VPWR Y
.ends

* Black-box entry subcircuit for sky130_fd_sc_hd__a211o_1 abstract view
.subckt sky130_fd_sc_hd__a211o_1 A1 A2 B1 C1 VGND VNB VPB VPWR X
.ends

* Black-box entry subcircuit for sky130_fd_sc_hd__o211a_1 abstract view
.subckt sky130_fd_sc_hd__o211a_1 A1 A2 B1 C1 VGND VNB VPB VPWR X
.ends

* Black-box entry subcircuit for sky130_fd_sc_hd__a221oi_4 abstract view
.subckt sky130_fd_sc_hd__a221oi_4 A1 A2 B1 B2 C1 VGND VNB VPB VPWR Y
.ends

* Black-box entry subcircuit for sky130_fd_sc_hd__and2_2 abstract view
.subckt sky130_fd_sc_hd__and2_2 A B VGND VNB VPB VPWR X
.ends

* Black-box entry subcircuit for sky130_fd_sc_hd__o221a_4 abstract view
.subckt sky130_fd_sc_hd__o221a_4 A1 A2 B1 B2 C1 VGND VNB VPB VPWR X
.ends

* Black-box entry subcircuit for sky130_fd_sc_hd__a21bo_1 abstract view
.subckt sky130_fd_sc_hd__a21bo_1 A1 A2 B1_N VGND VNB VPB VPWR X
.ends

* Black-box entry subcircuit for sky130_fd_sc_hd__or2b_1 abstract view
.subckt sky130_fd_sc_hd__or2b_1 A B_N VGND VNB VPB VPWR X
.ends

* Black-box entry subcircuit for sky130_fd_sc_hd__o22a_1 abstract view
.subckt sky130_fd_sc_hd__o22a_1 A1 A2 B1 B2 VGND VNB VPB VPWR X
.ends

* Black-box entry subcircuit for sky130_fd_sc_hd__nor2_2 abstract view
.subckt sky130_fd_sc_hd__nor2_2 A B VGND VNB VPB VPWR Y
.ends

* Black-box entry subcircuit for sky130_fd_sc_hd__inv_2 abstract view
.subckt sky130_fd_sc_hd__inv_2 A VGND VNB VPB VPWR Y
.ends

* Black-box entry subcircuit for sky130_fd_sc_hd__a22o_2 abstract view
.subckt sky130_fd_sc_hd__a22o_2 A1 A2 B1 B2 VGND VNB VPB VPWR X
.ends

* Black-box entry subcircuit for sky130_fd_sc_hd__o221a_1 abstract view
.subckt sky130_fd_sc_hd__o221a_1 A1 A2 B1 B2 C1 VGND VNB VPB VPWR X
.ends

* Black-box entry subcircuit for sky130_fd_sc_hd__nor2_8 abstract view
.subckt sky130_fd_sc_hd__nor2_8 A B VGND VNB VPB VPWR Y
.ends

* Black-box entry subcircuit for sky130_fd_sc_hd__o32a_2 abstract view
.subckt sky130_fd_sc_hd__o32a_2 A1 A2 A3 B1 B2 VGND VNB VPB VPWR X
.ends

* Black-box entry subcircuit for sky130_fd_sc_hd__a22oi_1 abstract view
.subckt sky130_fd_sc_hd__a22oi_1 A1 A2 B1 B2 VGND VNB VPB VPWR Y
.ends

* Black-box entry subcircuit for sky130_fd_sc_hd__o21ai_1 abstract view
.subckt sky130_fd_sc_hd__o21ai_1 A1 A2 B1 VGND VNB VPB VPWR Y
.ends

* Black-box entry subcircuit for sky130_fd_sc_hd__a31oi_2 abstract view
.subckt sky130_fd_sc_hd__a31oi_2 A1 A2 A3 B1 VGND VNB VPB VPWR Y
.ends

* Black-box entry subcircuit for sky130_fd_sc_hd__or2_4 abstract view
.subckt sky130_fd_sc_hd__or2_4 A B VGND VNB VPB VPWR X
.ends

* Black-box entry subcircuit for sky130_fd_sc_hd__clkbuf_8 abstract view
.subckt sky130_fd_sc_hd__clkbuf_8 A VGND VNB VPB VPWR X
.ends

* Black-box entry subcircuit for sky130_fd_sc_hd__or3_2 abstract view
.subckt sky130_fd_sc_hd__or3_2 A B C VGND VNB VPB VPWR X
.ends

* Black-box entry subcircuit for sky130_fd_sc_hd__or4_4 abstract view
.subckt sky130_fd_sc_hd__or4_4 A B C D VGND VNB VPB VPWR X
.ends

* Black-box entry subcircuit for sky130_fd_sc_hd__xnor2_2 abstract view
.subckt sky130_fd_sc_hd__xnor2_2 A B VGND VNB VPB VPWR Y
.ends

* Black-box entry subcircuit for sky130_fd_sc_hd__a2bb2o_1 abstract view
.subckt sky130_fd_sc_hd__a2bb2o_1 A1_N A2_N B1 B2 VGND VNB VPB VPWR X
.ends

* Black-box entry subcircuit for sky130_fd_sc_hd__o211ai_1 abstract view
.subckt sky130_fd_sc_hd__o211ai_1 A1 A2 B1 C1 VGND VNB VPB VPWR Y
.ends

* Black-box entry subcircuit for sky130_fd_sc_hd__or4_2 abstract view
.subckt sky130_fd_sc_hd__or4_2 A B C D VGND VNB VPB VPWR X
.ends

* Black-box entry subcircuit for sky130_fd_sc_hd__o221a_2 abstract view
.subckt sky130_fd_sc_hd__o221a_2 A1 A2 B1 B2 C1 VGND VNB VPB VPWR X
.ends

* Black-box entry subcircuit for sky130_fd_sc_hd__and2b_1 abstract view
.subckt sky130_fd_sc_hd__and2b_1 A_N B VGND VNB VPB VPWR X
.ends

* Black-box entry subcircuit for sky130_fd_sc_hd__a21oi_4 abstract view
.subckt sky130_fd_sc_hd__a21oi_4 A1 A2 B1 VGND VNB VPB VPWR Y
.ends

* Black-box entry subcircuit for sky130_fd_sc_hd__clkinv_2 abstract view
.subckt sky130_fd_sc_hd__clkinv_2 A VGND VNB VPB VPWR Y
.ends

* Black-box entry subcircuit for sky130_fd_sc_hd__a211oi_2 abstract view
.subckt sky130_fd_sc_hd__a211oi_2 A1 A2 B1 C1 VGND VNB VPB VPWR Y
.ends

* Black-box entry subcircuit for sky130_fd_sc_hd__and3b_1 abstract view
.subckt sky130_fd_sc_hd__and3b_1 A_N B C VGND VNB VPB VPWR X
.ends

* Black-box entry subcircuit for sky130_fd_sc_hd__a32o_2 abstract view
.subckt sky130_fd_sc_hd__a32o_2 A1 A2 A3 B1 B2 VGND VNB VPB VPWR X
.ends

* Black-box entry subcircuit for sky130_fd_sc_hd__nor3b_4 abstract view
.subckt sky130_fd_sc_hd__nor3b_4 A B C_N VGND VNB VPB VPWR Y
.ends

* Black-box entry subcircuit for sky130_fd_sc_hd__xor2_2 abstract view
.subckt sky130_fd_sc_hd__xor2_2 A B VGND VNB VPB VPWR X
.ends

* Black-box entry subcircuit for sky130_fd_sc_hd__a311o_1 abstract view
.subckt sky130_fd_sc_hd__a311o_1 A1 A2 A3 B1 C1 VGND VNB VPB VPWR X
.ends

* Black-box entry subcircuit for sky130_fd_sc_hd__or3b_4 abstract view
.subckt sky130_fd_sc_hd__or3b_4 A B C_N VGND VNB VPB VPWR X
.ends

* Black-box entry subcircuit for sky130_fd_sc_hd__a211oi_4 abstract view
.subckt sky130_fd_sc_hd__a211oi_4 A1 A2 B1 C1 VGND VNB VPB VPWR Y
.ends

* Black-box entry subcircuit for sky130_fd_sc_hd__o211a_2 abstract view
.subckt sky130_fd_sc_hd__o211a_2 A1 A2 B1 C1 VGND VNB VPB VPWR X
.ends

* Black-box entry subcircuit for sky130_fd_sc_hd__o31a_2 abstract view
.subckt sky130_fd_sc_hd__o31a_2 A1 A2 A3 B1 VGND VNB VPB VPWR X
.ends

* Black-box entry subcircuit for sky130_fd_sc_hd__o31ai_1 abstract view
.subckt sky130_fd_sc_hd__o31ai_1 A1 A2 A3 B1 VGND VNB VPB VPWR Y
.ends

* Black-box entry subcircuit for sky130_fd_sc_hd__or3b_1 abstract view
.subckt sky130_fd_sc_hd__or3b_1 A B C_N VGND VNB VPB VPWR X
.ends

* Black-box entry subcircuit for sky130_fd_sc_hd__a31o_4 abstract view
.subckt sky130_fd_sc_hd__a31o_4 A1 A2 A3 B1 VGND VNB VPB VPWR X
.ends

* Black-box entry subcircuit for sky130_fd_sc_hd__a221o_1 abstract view
.subckt sky130_fd_sc_hd__a221o_1 A1 A2 B1 B2 C1 VGND VNB VPB VPWR X
.ends

* Black-box entry subcircuit for sky130_fd_sc_hd__a22o_1 abstract view
.subckt sky130_fd_sc_hd__a22o_1 A1 A2 B1 B2 VGND VNB VPB VPWR X
.ends

* Black-box entry subcircuit for sky130_fd_sc_hd__a21o_2 abstract view
.subckt sky130_fd_sc_hd__a21o_2 A1 A2 B1 VGND VNB VPB VPWR X
.ends

* Black-box entry subcircuit for sky130_fd_sc_hd__dfxtp_4 abstract view
.subckt sky130_fd_sc_hd__dfxtp_4 CLK D VGND VNB VPB VPWR Q
.ends

* Black-box entry subcircuit for sky130_fd_sc_hd__a311o_2 abstract view
.subckt sky130_fd_sc_hd__a311o_2 A1 A2 A3 B1 C1 VGND VNB VPB VPWR X
.ends

* Black-box entry subcircuit for sky130_fd_sc_hd__xnor2_1 abstract view
.subckt sky130_fd_sc_hd__xnor2_1 A B VGND VNB VPB VPWR Y
.ends

* Black-box entry subcircuit for sky130_fd_sc_hd__or4b_1 abstract view
.subckt sky130_fd_sc_hd__or4b_1 A B C D_N VGND VNB VPB VPWR X
.ends

* Black-box entry subcircuit for sky130_fd_sc_hd__and3b_4 abstract view
.subckt sky130_fd_sc_hd__and3b_4 A_N B C VGND VNB VPB VPWR X
.ends

* Black-box entry subcircuit for sky130_fd_sc_hd__xor2_1 abstract view
.subckt sky130_fd_sc_hd__xor2_1 A B VGND VNB VPB VPWR X
.ends

* Black-box entry subcircuit for sky130_fd_sc_hd__a21boi_1 abstract view
.subckt sky130_fd_sc_hd__a21boi_1 A1 A2 B1_N VGND VNB VPB VPWR Y
.ends

* Black-box entry subcircuit for sky130_fd_sc_hd__a32o_1 abstract view
.subckt sky130_fd_sc_hd__a32o_1 A1 A2 A3 B1 B2 VGND VNB VPB VPWR X
.ends

* Black-box entry subcircuit for sky130_fd_sc_hd__inv_4 abstract view
.subckt sky130_fd_sc_hd__inv_4 A VGND VNB VPB VPWR Y
.ends

* Black-box entry subcircuit for sky130_fd_sc_hd__clkinv_4 abstract view
.subckt sky130_fd_sc_hd__clkinv_4 A VGND VNB VPB VPWR Y
.ends

* Black-box entry subcircuit for sky130_fd_sc_hd__or3_4 abstract view
.subckt sky130_fd_sc_hd__or3_4 A B C VGND VNB VPB VPWR X
.ends

* Black-box entry subcircuit for sky130_fd_sc_hd__or4_1 abstract view
.subckt sky130_fd_sc_hd__or4_1 A B C D VGND VNB VPB VPWR X
.ends

* Black-box entry subcircuit for sky130_fd_sc_hd__o311a_1 abstract view
.subckt sky130_fd_sc_hd__o311a_1 A1 A2 A3 B1 C1 VGND VNB VPB VPWR X
.ends

* Black-box entry subcircuit for sky130_fd_sc_hd__buf_12 abstract view
.subckt sky130_fd_sc_hd__buf_12 A VGND VNB VPB VPWR X
.ends

* Black-box entry subcircuit for sky130_fd_sc_hd__dfxtp_2 abstract view
.subckt sky130_fd_sc_hd__dfxtp_2 CLK D VGND VNB VPB VPWR Q
.ends

* Black-box entry subcircuit for sky130_fd_sc_hd__o21a_2 abstract view
.subckt sky130_fd_sc_hd__o21a_2 A1 A2 B1 VGND VNB VPB VPWR X
.ends

* Black-box entry subcircuit for sky130_fd_sc_hd__or2b_2 abstract view
.subckt sky130_fd_sc_hd__or2b_2 A B_N VGND VNB VPB VPWR X
.ends

* Black-box entry subcircuit for sky130_fd_sc_hd__and3_2 abstract view
.subckt sky130_fd_sc_hd__and3_2 A B C VGND VNB VPB VPWR X
.ends

* Black-box entry subcircuit for sky130_fd_sc_hd__o31ai_2 abstract view
.subckt sky130_fd_sc_hd__o31ai_2 A1 A2 A3 B1 VGND VNB VPB VPWR Y
.ends

* Black-box entry subcircuit for sky130_fd_sc_hd__o31ai_4 abstract view
.subckt sky130_fd_sc_hd__o31ai_4 A1 A2 A3 B1 VGND VNB VPB VPWR Y
.ends

* Black-box entry subcircuit for sky130_fd_sc_hd__a221oi_2 abstract view
.subckt sky130_fd_sc_hd__a221oi_2 A1 A2 B1 B2 C1 VGND VNB VPB VPWR Y
.ends

* Black-box entry subcircuit for sky130_fd_sc_hd__or3_1 abstract view
.subckt sky130_fd_sc_hd__or3_1 A B C VGND VNB VPB VPWR X
.ends

* Black-box entry subcircuit for sky130_fd_sc_hd__o32a_1 abstract view
.subckt sky130_fd_sc_hd__o32a_1 A1 A2 A3 B1 B2 VGND VNB VPB VPWR X
.ends

* Black-box entry subcircuit for sky130_fd_sc_hd__nand3_1 abstract view
.subckt sky130_fd_sc_hd__nand3_1 A B C VGND VNB VPB VPWR Y
.ends

* Black-box entry subcircuit for sky130_fd_sc_hd__a311o_4 abstract view
.subckt sky130_fd_sc_hd__a311o_4 A1 A2 A3 B1 C1 VGND VNB VPB VPWR X
.ends

* Black-box entry subcircuit for sky130_fd_sc_hd__o21ai_4 abstract view
.subckt sky130_fd_sc_hd__o21ai_4 A1 A2 B1 VGND VNB VPB VPWR Y
.ends

* Black-box entry subcircuit for sky130_fd_sc_hd__o21bai_1 abstract view
.subckt sky130_fd_sc_hd__o21bai_1 A1 A2 B1_N VGND VNB VPB VPWR Y
.ends

* Black-box entry subcircuit for sky130_fd_sc_hd__conb_1 abstract view
.subckt sky130_fd_sc_hd__conb_1 VGND VNB VPB VPWR HI LO
.ends

* Black-box entry subcircuit for sky130_fd_sc_hd__or4b_2 abstract view
.subckt sky130_fd_sc_hd__or4b_2 A B C D_N VGND VNB VPB VPWR X
.ends

* Black-box entry subcircuit for sky130_fd_sc_hd__a21oi_2 abstract view
.subckt sky130_fd_sc_hd__a21oi_2 A1 A2 B1 VGND VNB VPB VPWR Y
.ends

* Black-box entry subcircuit for sky130_fd_sc_hd__or3b_2 abstract view
.subckt sky130_fd_sc_hd__or3b_2 A B C_N VGND VNB VPB VPWR X
.ends

* Black-box entry subcircuit for sky130_fd_sc_hd__o311a_2 abstract view
.subckt sky130_fd_sc_hd__o311a_2 A1 A2 A3 B1 C1 VGND VNB VPB VPWR X
.ends

* Black-box entry subcircuit for sky130_fd_sc_hd__a21bo_2 abstract view
.subckt sky130_fd_sc_hd__a21bo_2 A1 A2 B1_N VGND VNB VPB VPWR X
.ends

* Black-box entry subcircuit for sky130_fd_sc_hd__nand2_4 abstract view
.subckt sky130_fd_sc_hd__nand2_4 A B VGND VNB VPB VPWR Y
.ends

* Black-box entry subcircuit for sky130_fd_sc_hd__a2bb2o_2 abstract view
.subckt sky130_fd_sc_hd__a2bb2o_2 A1_N A2_N B1 B2 VGND VNB VPB VPWR X
.ends

* Black-box entry subcircuit for sky130_fd_sc_hd__inv_6 abstract view
.subckt sky130_fd_sc_hd__inv_6 A VGND VNB VPB VPWR Y
.ends

* Black-box entry subcircuit for sky130_fd_sc_hd__nor3_4 abstract view
.subckt sky130_fd_sc_hd__nor3_4 A B C VGND VNB VPB VPWR Y
.ends

* Black-box entry subcircuit for sky130_fd_sc_hd__a211oi_1 abstract view
.subckt sky130_fd_sc_hd__a211oi_1 A1 A2 B1 C1 VGND VNB VPB VPWR Y
.ends

* Black-box entry subcircuit for sky130_fd_sc_hd__o2bb2a_2 abstract view
.subckt sky130_fd_sc_hd__o2bb2a_2 A1_N A2_N B1 B2 VGND VNB VPB VPWR X
.ends

* Black-box entry subcircuit for sky130_fd_sc_hd__a31o_2 abstract view
.subckt sky130_fd_sc_hd__a31o_2 A1 A2 A3 B1 VGND VNB VPB VPWR X
.ends

* Black-box entry subcircuit for sky130_fd_sc_hd__a221o_2 abstract view
.subckt sky130_fd_sc_hd__a221o_2 A1 A2 B1 B2 C1 VGND VNB VPB VPWR X
.ends

.subckt interconnect_inner c0_clk c0_dbg_pc[0] c0_dbg_pc[10] c0_dbg_pc[11] c0_dbg_pc[12]
+ c0_dbg_pc[13] c0_dbg_pc[14] c0_dbg_pc[15] c0_dbg_pc[1] c0_dbg_pc[2] c0_dbg_pc[3]
+ c0_dbg_pc[4] c0_dbg_pc[5] c0_dbg_pc[6] c0_dbg_pc[7] c0_dbg_pc[8] c0_dbg_pc[9] c0_dbg_r0[0]
+ c0_dbg_r0[10] c0_dbg_r0[11] c0_dbg_r0[12] c0_dbg_r0[13] c0_dbg_r0[14] c0_dbg_r0[15]
+ c0_dbg_r0[1] c0_dbg_r0[2] c0_dbg_r0[3] c0_dbg_r0[4] c0_dbg_r0[5] c0_dbg_r0[6] c0_dbg_r0[7]
+ c0_dbg_r0[8] c0_dbg_r0[9] c0_disable c0_i_core_int_sreg[0] c0_i_core_int_sreg[10]
+ c0_i_core_int_sreg[11] c0_i_core_int_sreg[12] c0_i_core_int_sreg[13] c0_i_core_int_sreg[14]
+ c0_i_core_int_sreg[15] c0_i_core_int_sreg[1] c0_i_core_int_sreg[2] c0_i_core_int_sreg[3]
+ c0_i_core_int_sreg[4] c0_i_core_int_sreg[5] c0_i_core_int_sreg[6] c0_i_core_int_sreg[7]
+ c0_i_core_int_sreg[8] c0_i_core_int_sreg[9] c0_i_irq c0_i_mc_core_int c0_i_mem_ack
+ c0_i_mem_data[0] c0_i_mem_data[10] c0_i_mem_data[11] c0_i_mem_data[12] c0_i_mem_data[13]
+ c0_i_mem_data[14] c0_i_mem_data[15] c0_i_mem_data[1] c0_i_mem_data[2] c0_i_mem_data[3]
+ c0_i_mem_data[4] c0_i_mem_data[5] c0_i_mem_data[6] c0_i_mem_data[7] c0_i_mem_data[8]
+ c0_i_mem_data[9] c0_i_mem_exception c0_i_req_data[0] c0_i_req_data[10] c0_i_req_data[11]
+ c0_i_req_data[12] c0_i_req_data[13] c0_i_req_data[14] c0_i_req_data[15] c0_i_req_data[16]
+ c0_i_req_data[17] c0_i_req_data[18] c0_i_req_data[19] c0_i_req_data[1] c0_i_req_data[20]
+ c0_i_req_data[21] c0_i_req_data[22] c0_i_req_data[23] c0_i_req_data[24] c0_i_req_data[25]
+ c0_i_req_data[26] c0_i_req_data[27] c0_i_req_data[28] c0_i_req_data[29] c0_i_req_data[2]
+ c0_i_req_data[30] c0_i_req_data[31] c0_i_req_data[3] c0_i_req_data[4] c0_i_req_data[5]
+ c0_i_req_data[6] c0_i_req_data[7] c0_i_req_data[8] c0_i_req_data[9] c0_i_req_data_valid
+ c0_o_c_data_page c0_o_c_instr_long c0_o_c_instr_page c0_o_icache_flush c0_o_instr_long_addr[0]
+ c0_o_instr_long_addr[1] c0_o_instr_long_addr[2] c0_o_instr_long_addr[3] c0_o_instr_long_addr[4]
+ c0_o_instr_long_addr[5] c0_o_instr_long_addr[6] c0_o_instr_long_addr[7] c0_o_mem_addr[0]
+ c0_o_mem_addr[10] c0_o_mem_addr[11] c0_o_mem_addr[12] c0_o_mem_addr[13] c0_o_mem_addr[14]
+ c0_o_mem_addr[15] c0_o_mem_addr[1] c0_o_mem_addr[2] c0_o_mem_addr[3] c0_o_mem_addr[4]
+ c0_o_mem_addr[5] c0_o_mem_addr[6] c0_o_mem_addr[7] c0_o_mem_addr[8] c0_o_mem_addr[9]
+ c0_o_mem_data[0] c0_o_mem_data[10] c0_o_mem_data[11] c0_o_mem_data[12] c0_o_mem_data[13]
+ c0_o_mem_data[14] c0_o_mem_data[15] c0_o_mem_data[1] c0_o_mem_data[2] c0_o_mem_data[3]
+ c0_o_mem_data[4] c0_o_mem_data[5] c0_o_mem_data[6] c0_o_mem_data[7] c0_o_mem_data[8]
+ c0_o_mem_data[9] c0_o_mem_high_addr[0] c0_o_mem_high_addr[1] c0_o_mem_high_addr[2]
+ c0_o_mem_high_addr[3] c0_o_mem_high_addr[4] c0_o_mem_high_addr[5] c0_o_mem_high_addr[6]
+ c0_o_mem_high_addr[7] c0_o_mem_long_mode c0_o_mem_req c0_o_mem_sel[0] c0_o_mem_sel[1]
+ c0_o_mem_we c0_o_req_active c0_o_req_addr[0] c0_o_req_addr[10] c0_o_req_addr[11]
+ c0_o_req_addr[12] c0_o_req_addr[13] c0_o_req_addr[14] c0_o_req_addr[15] c0_o_req_addr[1]
+ c0_o_req_addr[2] c0_o_req_addr[3] c0_o_req_addr[4] c0_o_req_addr[5] c0_o_req_addr[6]
+ c0_o_req_addr[7] c0_o_req_addr[8] c0_o_req_addr[9] c0_o_req_ppl_submit c0_rst c0_sr_bus_addr[0]
+ c0_sr_bus_addr[10] c0_sr_bus_addr[11] c0_sr_bus_addr[12] c0_sr_bus_addr[13] c0_sr_bus_addr[14]
+ c0_sr_bus_addr[15] c0_sr_bus_addr[1] c0_sr_bus_addr[2] c0_sr_bus_addr[3] c0_sr_bus_addr[4]
+ c0_sr_bus_addr[5] c0_sr_bus_addr[6] c0_sr_bus_addr[7] c0_sr_bus_addr[8] c0_sr_bus_addr[9]
+ c0_sr_bus_data_o[0] c0_sr_bus_data_o[10] c0_sr_bus_data_o[11] c0_sr_bus_data_o[12]
+ c0_sr_bus_data_o[13] c0_sr_bus_data_o[14] c0_sr_bus_data_o[15] c0_sr_bus_data_o[1]
+ c0_sr_bus_data_o[2] c0_sr_bus_data_o[3] c0_sr_bus_data_o[4] c0_sr_bus_data_o[5]
+ c0_sr_bus_data_o[6] c0_sr_bus_data_o[7] c0_sr_bus_data_o[8] c0_sr_bus_data_o[9]
+ c0_sr_bus_we c1_clk c1_dbg_pc[0] c1_dbg_pc[10] c1_dbg_pc[11] c1_dbg_pc[12] c1_dbg_pc[13]
+ c1_dbg_pc[14] c1_dbg_pc[15] c1_dbg_pc[1] c1_dbg_pc[2] c1_dbg_pc[3] c1_dbg_pc[4]
+ c1_dbg_pc[5] c1_dbg_pc[6] c1_dbg_pc[7] c1_dbg_pc[8] c1_dbg_pc[9] c1_dbg_r0[0] c1_dbg_r0[10]
+ c1_dbg_r0[11] c1_dbg_r0[12] c1_dbg_r0[13] c1_dbg_r0[14] c1_dbg_r0[15] c1_dbg_r0[1]
+ c1_dbg_r0[2] c1_dbg_r0[3] c1_dbg_r0[4] c1_dbg_r0[5] c1_dbg_r0[6] c1_dbg_r0[7] c1_dbg_r0[8]
+ c1_dbg_r0[9] c1_disable c1_i_core_int_sreg[0] c1_i_core_int_sreg[10] c1_i_core_int_sreg[11]
+ c1_i_core_int_sreg[12] c1_i_core_int_sreg[13] c1_i_core_int_sreg[14] c1_i_core_int_sreg[15]
+ c1_i_core_int_sreg[1] c1_i_core_int_sreg[2] c1_i_core_int_sreg[3] c1_i_core_int_sreg[4]
+ c1_i_core_int_sreg[5] c1_i_core_int_sreg[6] c1_i_core_int_sreg[7] c1_i_core_int_sreg[8]
+ c1_i_core_int_sreg[9] c1_i_irq c1_i_mc_core_int c1_i_mem_ack c1_i_mem_data[0] c1_i_mem_data[10]
+ c1_i_mem_data[11] c1_i_mem_data[12] c1_i_mem_data[13] c1_i_mem_data[14] c1_i_mem_data[15]
+ c1_i_mem_data[1] c1_i_mem_data[2] c1_i_mem_data[3] c1_i_mem_data[4] c1_i_mem_data[5]
+ c1_i_mem_data[6] c1_i_mem_data[7] c1_i_mem_data[8] c1_i_mem_data[9] c1_i_mem_exception
+ c1_i_req_data[0] c1_i_req_data[10] c1_i_req_data[11] c1_i_req_data[12] c1_i_req_data[13]
+ c1_i_req_data[14] c1_i_req_data[15] c1_i_req_data[16] c1_i_req_data[17] c1_i_req_data[18]
+ c1_i_req_data[19] c1_i_req_data[1] c1_i_req_data[20] c1_i_req_data[21] c1_i_req_data[22]
+ c1_i_req_data[23] c1_i_req_data[24] c1_i_req_data[25] c1_i_req_data[26] c1_i_req_data[27]
+ c1_i_req_data[28] c1_i_req_data[29] c1_i_req_data[2] c1_i_req_data[30] c1_i_req_data[31]
+ c1_i_req_data[3] c1_i_req_data[4] c1_i_req_data[5] c1_i_req_data[6] c1_i_req_data[7]
+ c1_i_req_data[8] c1_i_req_data[9] c1_i_req_data_valid c1_o_c_data_page c1_o_c_instr_long
+ c1_o_c_instr_page c1_o_icache_flush c1_o_instr_long_addr[0] c1_o_instr_long_addr[1]
+ c1_o_instr_long_addr[2] c1_o_instr_long_addr[3] c1_o_instr_long_addr[4] c1_o_instr_long_addr[5]
+ c1_o_instr_long_addr[6] c1_o_instr_long_addr[7] c1_o_mem_addr[0] c1_o_mem_addr[10]
+ c1_o_mem_addr[11] c1_o_mem_addr[12] c1_o_mem_addr[13] c1_o_mem_addr[14] c1_o_mem_addr[15]
+ c1_o_mem_addr[1] c1_o_mem_addr[2] c1_o_mem_addr[3] c1_o_mem_addr[4] c1_o_mem_addr[5]
+ c1_o_mem_addr[6] c1_o_mem_addr[7] c1_o_mem_addr[8] c1_o_mem_addr[9] c1_o_mem_data[0]
+ c1_o_mem_data[10] c1_o_mem_data[11] c1_o_mem_data[12] c1_o_mem_data[13] c1_o_mem_data[14]
+ c1_o_mem_data[15] c1_o_mem_data[1] c1_o_mem_data[2] c1_o_mem_data[3] c1_o_mem_data[4]
+ c1_o_mem_data[5] c1_o_mem_data[6] c1_o_mem_data[7] c1_o_mem_data[8] c1_o_mem_data[9]
+ c1_o_mem_high_addr[0] c1_o_mem_high_addr[1] c1_o_mem_high_addr[2] c1_o_mem_high_addr[3]
+ c1_o_mem_high_addr[4] c1_o_mem_high_addr[5] c1_o_mem_high_addr[6] c1_o_mem_high_addr[7]
+ c1_o_mem_long_mode c1_o_mem_req c1_o_mem_sel[0] c1_o_mem_sel[1] c1_o_mem_we c1_o_req_active
+ c1_o_req_addr[0] c1_o_req_addr[10] c1_o_req_addr[11] c1_o_req_addr[12] c1_o_req_addr[13]
+ c1_o_req_addr[14] c1_o_req_addr[15] c1_o_req_addr[1] c1_o_req_addr[2] c1_o_req_addr[3]
+ c1_o_req_addr[4] c1_o_req_addr[5] c1_o_req_addr[6] c1_o_req_addr[7] c1_o_req_addr[8]
+ c1_o_req_addr[9] c1_o_req_ppl_submit c1_rst c1_sr_bus_addr[0] c1_sr_bus_addr[10]
+ c1_sr_bus_addr[11] c1_sr_bus_addr[12] c1_sr_bus_addr[13] c1_sr_bus_addr[14] c1_sr_bus_addr[15]
+ c1_sr_bus_addr[1] c1_sr_bus_addr[2] c1_sr_bus_addr[3] c1_sr_bus_addr[4] c1_sr_bus_addr[5]
+ c1_sr_bus_addr[6] c1_sr_bus_addr[7] c1_sr_bus_addr[8] c1_sr_bus_addr[9] c1_sr_bus_data_o[0]
+ c1_sr_bus_data_o[10] c1_sr_bus_data_o[11] c1_sr_bus_data_o[12] c1_sr_bus_data_o[13]
+ c1_sr_bus_data_o[14] c1_sr_bus_data_o[15] c1_sr_bus_data_o[1] c1_sr_bus_data_o[2]
+ c1_sr_bus_data_o[3] c1_sr_bus_data_o[4] c1_sr_bus_data_o[5] c1_sr_bus_data_o[6]
+ c1_sr_bus_data_o[7] c1_sr_bus_data_o[8] c1_sr_bus_data_o[9] c1_sr_bus_we core_clock
+ core_reset dcache_clk dcache_mem_ack dcache_mem_addr[0] dcache_mem_addr[10] dcache_mem_addr[11]
+ dcache_mem_addr[12] dcache_mem_addr[13] dcache_mem_addr[14] dcache_mem_addr[15]
+ dcache_mem_addr[16] dcache_mem_addr[17] dcache_mem_addr[18] dcache_mem_addr[19]
+ dcache_mem_addr[1] dcache_mem_addr[20] dcache_mem_addr[21] dcache_mem_addr[22] dcache_mem_addr[23]
+ dcache_mem_addr[2] dcache_mem_addr[3] dcache_mem_addr[4] dcache_mem_addr[5] dcache_mem_addr[6]
+ dcache_mem_addr[7] dcache_mem_addr[8] dcache_mem_addr[9] dcache_mem_cache_enable
+ dcache_mem_exception dcache_mem_i_data[0] dcache_mem_i_data[10] dcache_mem_i_data[11]
+ dcache_mem_i_data[12] dcache_mem_i_data[13] dcache_mem_i_data[14] dcache_mem_i_data[15]
+ dcache_mem_i_data[1] dcache_mem_i_data[2] dcache_mem_i_data[3] dcache_mem_i_data[4]
+ dcache_mem_i_data[5] dcache_mem_i_data[6] dcache_mem_i_data[7] dcache_mem_i_data[8]
+ dcache_mem_i_data[9] dcache_mem_o_data[0] dcache_mem_o_data[10] dcache_mem_o_data[11]
+ dcache_mem_o_data[12] dcache_mem_o_data[13] dcache_mem_o_data[14] dcache_mem_o_data[15]
+ dcache_mem_o_data[1] dcache_mem_o_data[2] dcache_mem_o_data[3] dcache_mem_o_data[4]
+ dcache_mem_o_data[5] dcache_mem_o_data[6] dcache_mem_o_data[7] dcache_mem_o_data[8]
+ dcache_mem_o_data[9] dcache_mem_req dcache_mem_sel[0] dcache_mem_sel[1] dcache_mem_we
+ dcache_rst dcache_wb_4_burst dcache_wb_ack dcache_wb_adr[0] dcache_wb_adr[10] dcache_wb_adr[11]
+ dcache_wb_adr[12] dcache_wb_adr[13] dcache_wb_adr[14] dcache_wb_adr[15] dcache_wb_adr[16]
+ dcache_wb_adr[17] dcache_wb_adr[18] dcache_wb_adr[19] dcache_wb_adr[1] dcache_wb_adr[20]
+ dcache_wb_adr[21] dcache_wb_adr[22] dcache_wb_adr[23] dcache_wb_adr[2] dcache_wb_adr[3]
+ dcache_wb_adr[4] dcache_wb_adr[5] dcache_wb_adr[6] dcache_wb_adr[7] dcache_wb_adr[8]
+ dcache_wb_adr[9] dcache_wb_cyc dcache_wb_err dcache_wb_i_dat[0] dcache_wb_i_dat[10]
+ dcache_wb_i_dat[11] dcache_wb_i_dat[12] dcache_wb_i_dat[13] dcache_wb_i_dat[14]
+ dcache_wb_i_dat[15] dcache_wb_i_dat[1] dcache_wb_i_dat[2] dcache_wb_i_dat[3] dcache_wb_i_dat[4]
+ dcache_wb_i_dat[5] dcache_wb_i_dat[6] dcache_wb_i_dat[7] dcache_wb_i_dat[8] dcache_wb_i_dat[9]
+ dcache_wb_o_dat[0] dcache_wb_o_dat[10] dcache_wb_o_dat[11] dcache_wb_o_dat[12] dcache_wb_o_dat[13]
+ dcache_wb_o_dat[14] dcache_wb_o_dat[15] dcache_wb_o_dat[1] dcache_wb_o_dat[2] dcache_wb_o_dat[3]
+ dcache_wb_o_dat[4] dcache_wb_o_dat[5] dcache_wb_o_dat[6] dcache_wb_o_dat[7] dcache_wb_o_dat[8]
+ dcache_wb_o_dat[9] dcache_wb_sel[0] dcache_wb_sel[1] dcache_wb_stb dcache_wb_we
+ ic0_clk ic0_mem_ack ic0_mem_addr[0] ic0_mem_addr[10] ic0_mem_addr[11] ic0_mem_addr[12]
+ ic0_mem_addr[13] ic0_mem_addr[14] ic0_mem_addr[15] ic0_mem_addr[1] ic0_mem_addr[2]
+ ic0_mem_addr[3] ic0_mem_addr[4] ic0_mem_addr[5] ic0_mem_addr[6] ic0_mem_addr[7]
+ ic0_mem_addr[8] ic0_mem_addr[9] ic0_mem_cache_flush ic0_mem_data[0] ic0_mem_data[10]
+ ic0_mem_data[11] ic0_mem_data[12] ic0_mem_data[13] ic0_mem_data[14] ic0_mem_data[15]
+ ic0_mem_data[16] ic0_mem_data[17] ic0_mem_data[18] ic0_mem_data[19] ic0_mem_data[1]
+ ic0_mem_data[20] ic0_mem_data[21] ic0_mem_data[22] ic0_mem_data[23] ic0_mem_data[24]
+ ic0_mem_data[25] ic0_mem_data[26] ic0_mem_data[27] ic0_mem_data[28] ic0_mem_data[29]
+ ic0_mem_data[2] ic0_mem_data[30] ic0_mem_data[31] ic0_mem_data[3] ic0_mem_data[4]
+ ic0_mem_data[5] ic0_mem_data[6] ic0_mem_data[7] ic0_mem_data[8] ic0_mem_data[9]
+ ic0_mem_ppl_submit ic0_mem_req ic0_rst ic0_wb_ack ic0_wb_adr[0] ic0_wb_adr[10] ic0_wb_adr[11]
+ ic0_wb_adr[12] ic0_wb_adr[13] ic0_wb_adr[14] ic0_wb_adr[15] ic0_wb_adr[1] ic0_wb_adr[2]
+ ic0_wb_adr[3] ic0_wb_adr[4] ic0_wb_adr[5] ic0_wb_adr[6] ic0_wb_adr[7] ic0_wb_adr[8]
+ ic0_wb_adr[9] ic0_wb_cyc ic0_wb_err ic0_wb_i_dat[0] ic0_wb_i_dat[10] ic0_wb_i_dat[11]
+ ic0_wb_i_dat[12] ic0_wb_i_dat[13] ic0_wb_i_dat[14] ic0_wb_i_dat[15] ic0_wb_i_dat[1]
+ ic0_wb_i_dat[2] ic0_wb_i_dat[3] ic0_wb_i_dat[4] ic0_wb_i_dat[5] ic0_wb_i_dat[6]
+ ic0_wb_i_dat[7] ic0_wb_i_dat[8] ic0_wb_i_dat[9] ic0_wb_sel[0] ic0_wb_sel[1] ic0_wb_stb
+ ic0_wb_we ic1_clk ic1_mem_ack ic1_mem_addr[0] ic1_mem_addr[10] ic1_mem_addr[11]
+ ic1_mem_addr[12] ic1_mem_addr[13] ic1_mem_addr[14] ic1_mem_addr[15] ic1_mem_addr[1]
+ ic1_mem_addr[2] ic1_mem_addr[3] ic1_mem_addr[4] ic1_mem_addr[5] ic1_mem_addr[6]
+ ic1_mem_addr[7] ic1_mem_addr[8] ic1_mem_addr[9] ic1_mem_cache_flush ic1_mem_data[0]
+ ic1_mem_data[10] ic1_mem_data[11] ic1_mem_data[12] ic1_mem_data[13] ic1_mem_data[14]
+ ic1_mem_data[15] ic1_mem_data[16] ic1_mem_data[17] ic1_mem_data[18] ic1_mem_data[19]
+ ic1_mem_data[1] ic1_mem_data[20] ic1_mem_data[21] ic1_mem_data[22] ic1_mem_data[23]
+ ic1_mem_data[24] ic1_mem_data[25] ic1_mem_data[26] ic1_mem_data[27] ic1_mem_data[28]
+ ic1_mem_data[29] ic1_mem_data[2] ic1_mem_data[30] ic1_mem_data[31] ic1_mem_data[3]