* NGSPICE file created from interconnect_inner.ext - technology: gf180mcuD

* Black-box entry subcircuit for gf180mcu_fd_sc_mcu7t5v0__antenna abstract view
.subckt gf180mcu_fd_sc_mcu7t5v0__antenna I VDD VNW VPW VSS
.ends

* Black-box entry subcircuit for gf180mcu_fd_sc_mcu7t5v0__fill_2 abstract view
.subckt gf180mcu_fd_sc_mcu7t5v0__fill_2 VDD VNW VPW VSS
.ends

* Black-box entry subcircuit for gf180mcu_fd_sc_mcu7t5v0__clkbuf_16 abstract view
.subckt gf180mcu_fd_sc_mcu7t5v0__clkbuf_16 I Z VDD VNW VPW VSS
.ends

* Black-box entry subcircuit for gf180mcu_fd_sc_mcu7t5v0__inv_1 abstract view
.subckt gf180mcu_fd_sc_mcu7t5v0__inv_1 I ZN VDD VNW VPW VSS
.ends

* Black-box entry subcircuit for gf180mcu_fd_sc_mcu7t5v0__clkbuf_1 abstract view
.subckt gf180mcu_fd_sc_mcu7t5v0__clkbuf_1 I Z VDD VNW VPW VSS
.ends

* Black-box entry subcircuit for gf180mcu_fd_sc_mcu7t5v0__fill_1 abstract view
.subckt gf180mcu_fd_sc_mcu7t5v0__fill_1 VDD VNW VPW VSS
.ends

* Black-box entry subcircuit for gf180mcu_fd_sc_mcu7t5v0__dffq_1 abstract view
.subckt gf180mcu_fd_sc_mcu7t5v0__dffq_1 D CLK Q VDD VNW VPW VSS
.ends

* Black-box entry subcircuit for gf180mcu_fd_sc_mcu7t5v0__fillcap_8 abstract view
.subckt gf180mcu_fd_sc_mcu7t5v0__fillcap_8 VDD VNW VPW VSS
.ends

* Black-box entry subcircuit for gf180mcu_fd_sc_mcu7t5v0__fillcap_16 abstract view
.subckt gf180mcu_fd_sc_mcu7t5v0__fillcap_16 VDD VNW VPW VSS
.ends

* Black-box entry subcircuit for gf180mcu_fd_sc_mcu7t5v0__and2_1 abstract view
.subckt gf180mcu_fd_sc_mcu7t5v0__and2_1 A1 A2 Z VDD VNW VPW VSS
.ends

* Black-box entry subcircuit for gf180mcu_fd_sc_mcu7t5v0__filltie abstract view
.subckt gf180mcu_fd_sc_mcu7t5v0__filltie VDD VSS
.ends

* Black-box entry subcircuit for gf180mcu_fd_sc_mcu7t5v0__clkinv_1 abstract view
.subckt gf180mcu_fd_sc_mcu7t5v0__clkinv_1 I ZN VDD VNW VPW VSS
.ends

* Black-box entry subcircuit for gf180mcu_fd_sc_mcu7t5v0__mux2_2 abstract view
.subckt gf180mcu_fd_sc_mcu7t5v0__mux2_2 I0 I1 S Z VDD VNW VPW VSS
.ends

* Black-box entry subcircuit for gf180mcu_fd_sc_mcu7t5v0__fillcap_4 abstract view
.subckt gf180mcu_fd_sc_mcu7t5v0__fillcap_4 VDD VNW VPW VSS
.ends

* Black-box entry subcircuit for gf180mcu_fd_sc_mcu7t5v0__aoi22_1 abstract view
.subckt gf180mcu_fd_sc_mcu7t5v0__aoi22_1 A1 A2 B1 B2 ZN VDD VNW VPW VSS
.ends

* Black-box entry subcircuit for gf180mcu_fd_sc_mcu7t5v0__nor2_4 abstract view
.subckt gf180mcu_fd_sc_mcu7t5v0__nor2_4 A1 A2 ZN VDD VNW VPW VSS
.ends

* Black-box entry subcircuit for gf180mcu_fd_sc_mcu7t5v0__dlyb_1 abstract view
.subckt gf180mcu_fd_sc_mcu7t5v0__dlyb_1 I Z VDD VNW VPW VSS
.ends

* Black-box entry subcircuit for gf180mcu_fd_sc_mcu7t5v0__fillcap_32 abstract view
.subckt gf180mcu_fd_sc_mcu7t5v0__fillcap_32 VDD VNW VPW VSS
.ends

* Black-box entry subcircuit for gf180mcu_fd_sc_mcu7t5v0__oai211_4 abstract view
.subckt gf180mcu_fd_sc_mcu7t5v0__oai211_4 A1 A2 B C ZN VDD VNW VPW VSS
.ends

* Black-box entry subcircuit for gf180mcu_fd_sc_mcu7t5v0__nand3_1 abstract view
.subckt gf180mcu_fd_sc_mcu7t5v0__nand3_1 A1 A2 A3 ZN VDD VNW VPW VSS
.ends

* Black-box entry subcircuit for gf180mcu_fd_sc_mcu7t5v0__buf_4 abstract view
.subckt gf180mcu_fd_sc_mcu7t5v0__buf_4 I Z VDD VNW VPW VSS
.ends

* Black-box entry subcircuit for gf180mcu_fd_sc_mcu7t5v0__buf_3 abstract view
.subckt gf180mcu_fd_sc_mcu7t5v0__buf_3 I Z VDD VNW VPW VSS
.ends

* Black-box entry subcircuit for gf180mcu_fd_sc_mcu7t5v0__clkbuf_2 abstract view
.subckt gf180mcu_fd_sc_mcu7t5v0__clkbuf_2 I Z VDD VNW VPW VSS
.ends

* Black-box entry subcircuit for gf180mcu_fd_sc_mcu7t5v0__oai21_2 abstract view
.subckt gf180mcu_fd_sc_mcu7t5v0__oai21_2 A1 A2 B ZN VDD VNW VPW VSS
.ends

* Black-box entry subcircuit for gf180mcu_fd_sc_mcu7t5v0__clkbuf_8 abstract view
.subckt gf180mcu_fd_sc_mcu7t5v0__clkbuf_8 I Z VDD VNW VPW VSS
.ends

* Black-box entry subcircuit for gf180mcu_fd_sc_mcu7t5v0__fillcap_64 abstract view
.subckt gf180mcu_fd_sc_mcu7t5v0__fillcap_64 VDD VNW VPW VSS
.ends

* Black-box entry subcircuit for gf180mcu_fd_sc_mcu7t5v0__nand2_1 abstract view
.subckt gf180mcu_fd_sc_mcu7t5v0__nand2_1 A1 A2 ZN VDD VNW VPW VSS
.ends

* Black-box entry subcircuit for gf180mcu_fd_sc_mcu7t5v0__mux4_1 abstract view
.subckt gf180mcu_fd_sc_mcu7t5v0__mux4_1 I0 I1 I2 I3 S0 S1 Z VDD VNW VPW VSS
.ends

* Black-box entry subcircuit for gf180mcu_fd_sc_mcu7t5v0__nor2_1 abstract view
.subckt gf180mcu_fd_sc_mcu7t5v0__nor2_1 A1 A2 ZN VDD VNW VPW VSS
.ends

* Black-box entry subcircuit for gf180mcu_fd_sc_mcu7t5v0__nor3_2 abstract view
.subckt gf180mcu_fd_sc_mcu7t5v0__nor3_2 A1 A2 A3 ZN VDD VNW VPW VSS
.ends

* Black-box entry subcircuit for gf180mcu_fd_sc_mcu7t5v0__endcap abstract view
.subckt gf180mcu_fd_sc_mcu7t5v0__endcap VDD VSS
.ends

* Black-box entry subcircuit for gf180mcu_fd_sc_mcu7t5v0__buf_2 abstract view
.subckt gf180mcu_fd_sc_mcu7t5v0__buf_2 I Z VDD VNW VPW VSS
.ends

* Black-box entry subcircuit for gf180mcu_fd_sc_mcu7t5v0__xor3_1 abstract view
.subckt gf180mcu_fd_sc_mcu7t5v0__xor3_1 A1 A2 A3 Z VDD VNW VPW VSS
.ends

* Black-box entry subcircuit for gf180mcu_fd_sc_mcu7t5v0__nand2_2 abstract view
.subckt gf180mcu_fd_sc_mcu7t5v0__nand2_2 A1 A2 ZN VDD VNW VPW VSS
.ends

* Black-box entry subcircuit for gf180mcu_fd_sc_mcu7t5v0__xnor3_1 abstract view
.subckt gf180mcu_fd_sc_mcu7t5v0__xnor3_1 A1 A2 A3 ZN VDD VNW VPW VSS
.ends

* Black-box entry subcircuit for gf180mcu_fd_sc_mcu7t5v0__aoi21_4 abstract view
.subckt gf180mcu_fd_sc_mcu7t5v0__aoi21_4 A1 A2 B ZN VDD VNW VPW VSS
.ends

* Black-box entry subcircuit for gf180mcu_fd_sc_mcu7t5v0__nor3_4 abstract view
.subckt gf180mcu_fd_sc_mcu7t5v0__nor3_4 A1 A2 A3 ZN VDD VNW VPW VSS
.ends

* Black-box entry subcircuit for gf180mcu_fd_sc_mcu7t5v0__buf_1 abstract view
.subckt gf180mcu_fd_sc_mcu7t5v0__buf_1 I Z VDD VNW VPW VSS
.ends

* Black-box entry subcircuit for gf180mcu_fd_sc_mcu7t5v0__aoi22_4 abstract view
.subckt gf180mcu_fd_sc_mcu7t5v0__aoi22_4 A1 A2 B1 B2 ZN VDD VNW VPW VSS
.ends

* Black-box entry subcircuit for gf180mcu_fd_sc_mcu7t5v0__oai211_1 abstract view
.subckt gf180mcu_fd_sc_mcu7t5v0__oai211_1 A1 A2 B C ZN VDD VNW VPW VSS
.ends

* Black-box entry subcircuit for gf180mcu_fd_sc_mcu7t5v0__nor2_2 abstract view
.subckt gf180mcu_fd_sc_mcu7t5v0__nor2_2 A1 A2 ZN VDD VNW VPW VSS
.ends

* Black-box entry subcircuit for gf180mcu_fd_sc_mcu7t5v0__clkbuf_3 abstract view
.subckt gf180mcu_fd_sc_mcu7t5v0__clkbuf_3 I Z VDD VNW VPW VSS
.ends

* Black-box entry subcircuit for gf180mcu_fd_sc_mcu7t5v0__clkbuf_4 abstract view
.subckt gf180mcu_fd_sc_mcu7t5v0__clkbuf_4 I Z VDD VNW VPW VSS
.ends

* Black-box entry subcircuit for gf180mcu_fd_sc_mcu7t5v0__aoi22_2 abstract view
.subckt gf180mcu_fd_sc_mcu7t5v0__aoi22_2 A1 A2 B1 B2 ZN VDD VNW VPW VSS
.ends

* Black-box entry subcircuit for gf180mcu_fd_sc_mcu7t5v0__or2_1 abstract view
.subckt gf180mcu_fd_sc_mcu7t5v0__or2_1 A1 A2 Z VDD VNW VPW VSS
.ends

* Black-box entry subcircuit for gf180mcu_fd_sc_mcu7t5v0__mux4_4 abstract view
.subckt gf180mcu_fd_sc_mcu7t5v0__mux4_4 I0 I1 I2 I3 S0 S1 Z VDD VNW VPW VSS
.ends

* Black-box entry subcircuit for gf180mcu_fd_sc_mcu7t5v0__or2_4 abstract view
.subckt gf180mcu_fd_sc_mcu7t5v0__or2_4 A1 A2 Z VDD VNW VPW VSS
.ends

* Black-box entry subcircuit for gf180mcu_fd_sc_mcu7t5v0__oai22_1 abstract view
.subckt gf180mcu_fd_sc_mcu7t5v0__oai22_1 A1 A2 B1 B2 ZN VDD VNW VPW VSS
.ends

* Black-box entry subcircuit for gf180mcu_fd_sc_mcu7t5v0__oai21_1 abstract view
.subckt gf180mcu_fd_sc_mcu7t5v0__oai21_1 A1 A2 B ZN VDD VNW VPW VSS
.ends

* Black-box entry subcircuit for gf180mcu_fd_sc_mcu7t5v0__or3_2 abstract view
.subckt gf180mcu_fd_sc_mcu7t5v0__or3_2 A1 A2 A3 Z VDD VNW VPW VSS
.ends

* Black-box entry subcircuit for gf180mcu_fd_sc_mcu7t5v0__and2_2 abstract view
.subckt gf180mcu_fd_sc_mcu7t5v0__and2_2 A1 A2 Z VDD VNW VPW VSS
.ends

* Black-box entry subcircuit for gf180mcu_fd_sc_mcu7t5v0__mux4_2 abstract view
.subckt gf180mcu_fd_sc_mcu7t5v0__mux4_2 I0 I1 I2 I3 S0 S1 Z VDD VNW VPW VSS
.ends

* Black-box entry subcircuit for gf180mcu_fd_sc_mcu7t5v0__nand3_2 abstract view
.subckt gf180mcu_fd_sc_mcu7t5v0__nand3_2 A1 A2 A3 ZN VDD VNW VPW VSS
.ends

* Black-box entry subcircuit for gf180mcu_fd_sc_mcu7t5v0__and3_1 abstract view
.subckt gf180mcu_fd_sc_mcu7t5v0__and3_1 A1 A2 A3 Z VDD VNW VPW VSS
.ends

* Black-box entry subcircuit for gf180mcu_fd_sc_mcu7t5v0__xnor2_2 abstract view
.subckt gf180mcu_fd_sc_mcu7t5v0__xnor2_2 A1 A2 ZN VDD VNW VPW VSS
.ends

* Black-box entry subcircuit for gf180mcu_fd_sc_mcu7t5v0__inv_4 abstract view
.subckt gf180mcu_fd_sc_mcu7t5v0__inv_4 I ZN VDD VNW VPW VSS
.ends

* Black-box entry subcircuit for gf180mcu_fd_sc_mcu7t5v0__aoi21_2 abstract view
.subckt gf180mcu_fd_sc_mcu7t5v0__aoi21_2 A1 A2 B ZN VDD VNW VPW VSS
.ends

* Black-box entry subcircuit for gf180mcu_fd_sc_mcu7t5v0__oai21_4 abstract view
.subckt gf180mcu_fd_sc_mcu7t5v0__oai21_4 A1 A2 B ZN VDD VNW VPW VSS
.ends

* Black-box entry subcircuit for gf180mcu_fd_sc_mcu7t5v0__nand3_4 abstract view
.subckt gf180mcu_fd_sc_mcu7t5v0__nand3_4 A1 A2 A3 ZN VDD VNW VPW VSS
.ends

* Black-box entry subcircuit for gf180mcu_fd_sc_mcu7t5v0__oai211_2 abstract view
.subckt gf180mcu_fd_sc_mcu7t5v0__oai211_2 A1 A2 B C ZN VDD VNW VPW VSS
.ends

* Black-box entry subcircuit for gf180mcu_fd_sc_mcu7t5v0__aoi21_1 abstract view
.subckt gf180mcu_fd_sc_mcu7t5v0__aoi21_1 A1 A2 B ZN VDD VNW VPW VSS
.ends

* Black-box entry subcircuit for gf180mcu_fd_sc_mcu7t5v0__nand2_4 abstract view
.subckt gf180mcu_fd_sc_mcu7t5v0__nand2_4 A1 A2 ZN VDD VNW VPW VSS
.ends

* Black-box entry subcircuit for gf180mcu_fd_sc_mcu7t5v0__oai221_4 abstract view
.subckt gf180mcu_fd_sc_mcu7t5v0__oai221_4 A1 A2 B1 B2 C ZN VDD VNW VPW VSS
.ends

* Black-box entry subcircuit for gf180mcu_fd_sc_mcu7t5v0__aoi211_4 abstract view
.subckt gf180mcu_fd_sc_mcu7t5v0__aoi211_4 A1 A2 B C ZN VDD VNW VPW VSS
.ends

* Black-box entry subcircuit for gf180mcu_fd_sc_mcu7t5v0__nor4_1 abstract view
.subckt gf180mcu_fd_sc_mcu7t5v0__nor4_1 A1 A2 A3 A4 ZN VDD VNW VPW VSS
.ends

* Black-box entry subcircuit for gf180mcu_fd_sc_mcu7t5v0__dffq_2 abstract view
.subckt gf180mcu_fd_sc_mcu7t5v0__dffq_2 D CLK Q VDD VNW VPW VSS
.ends

* Black-box entry subcircuit for gf180mcu_fd_sc_mcu7t5v0__xor3_2 abstract view
.subckt gf180mcu_fd_sc_mcu7t5v0__xor3_2 A1 A2 A3 Z VDD VNW VPW VSS
.ends

* Black-box entry subcircuit for gf180mcu_fd_sc_mcu7t5v0__oai22_2 abstract view
.subckt gf180mcu_fd_sc_mcu7t5v0__oai22_2 A1 A2 B1 B2 ZN VDD VNW VPW VSS
.ends

* Black-box entry subcircuit for gf180mcu_fd_sc_mcu7t5v0__aoi221_4 abstract view
.subckt gf180mcu_fd_sc_mcu7t5v0__aoi221_4 A1 A2 B1 B2 C ZN VDD VNW VPW VSS
.ends

* Black-box entry subcircuit for gf180mcu_fd_sc_mcu7t5v0__oai31_1 abstract view
.subckt gf180mcu_fd_sc_mcu7t5v0__oai31_1 A1 A2 A3 B ZN VDD VNW VPW VSS
.ends

* Black-box entry subcircuit for gf180mcu_fd_sc_mcu7t5v0__oai32_4 abstract view
.subckt gf180mcu_fd_sc_mcu7t5v0__oai32_4 A1 A2 A3 B1 B2 ZN VDD VNW VPW VSS
.ends

* Black-box entry subcircuit for gf180mcu_fd_sc_mcu7t5v0__nor3_1 abstract view
.subckt gf180mcu_fd_sc_mcu7t5v0__nor3_1 A1 A2 A3 ZN VDD VNW VPW VSS
.ends

* Black-box entry subcircuit for gf180mcu_fd_sc_mcu7t5v0__oai31_2 abstract view
.subckt gf180mcu_fd_sc_mcu7t5v0__oai31_2 A1 A2 A3 B ZN VDD VNW VPW VSS
.ends

* Black-box entry subcircuit for gf180mcu_fd_sc_mcu7t5v0__clkinv_4 abstract view
.subckt gf180mcu_fd_sc_mcu7t5v0__clkinv_4 I ZN VDD VNW VPW VSS
.ends

* Black-box entry subcircuit for gf180mcu_fd_sc_mcu7t5v0__aoi211_2 abstract view
.subckt gf180mcu_fd_sc_mcu7t5v0__aoi211_2 A1 A2 B C ZN VDD VNW VPW VSS
.ends

* Black-box entry subcircuit for gf180mcu_fd_sc_mcu7t5v0__or3_4 abstract view
.subckt gf180mcu_fd_sc_mcu7t5v0__or3_4 A1 A2 A3 Z VDD VNW VPW VSS
.ends

* Black-box entry subcircuit for gf180mcu_fd_sc_mcu7t5v0__buf_8 abstract view
.subckt gf180mcu_fd_sc_mcu7t5v0__buf_8 I Z VDD VNW VPW VSS
.ends

* Black-box entry subcircuit for gf180mcu_fd_sc_mcu7t5v0__and2_4 abstract view
.subckt gf180mcu_fd_sc_mcu7t5v0__and2_4 A1 A2 Z VDD VNW VPW VSS
.ends

* Black-box entry subcircuit for gf180mcu_fd_sc_mcu7t5v0__xor2_1 abstract view
.subckt gf180mcu_fd_sc_mcu7t5v0__xor2_1 A1 A2 Z VDD VNW VPW VSS
.ends

* Black-box entry subcircuit for gf180mcu_fd_sc_mcu7t5v0__aoi221_2 abstract view
.subckt gf180mcu_fd_sc_mcu7t5v0__aoi221_2 A1 A2 B1 B2 C ZN VDD VNW VPW VSS
.ends

* Black-box entry subcircuit for gf180mcu_fd_sc_mcu7t5v0__oai31_4 abstract view
.subckt gf180mcu_fd_sc_mcu7t5v0__oai31_4 A1 A2 A3 B ZN VDD VNW VPW VSS
.ends

* Black-box entry subcircuit for gf180mcu_fd_sc_mcu7t5v0__mux2_4 abstract view
.subckt gf180mcu_fd_sc_mcu7t5v0__mux2_4 I0 I1 S Z VDD VNW VPW VSS
.ends

* Black-box entry subcircuit for gf180mcu_fd_sc_mcu7t5v0__inv_2 abstract view
.subckt gf180mcu_fd_sc_mcu7t5v0__inv_2 I ZN VDD VNW VPW VSS
.ends

* Black-box entry subcircuit for gf180mcu_fd_sc_mcu7t5v0__nor4_4 abstract view
.subckt gf180mcu_fd_sc_mcu7t5v0__nor4_4 A1 A2 A3 A4 ZN VDD VNW VPW VSS
.ends

* Black-box entry subcircuit for gf180mcu_fd_sc_mcu7t5v0__or2_2 abstract view
.subckt gf180mcu_fd_sc_mcu7t5v0__or2_2 A1 A2 Z VDD VNW VPW VSS
.ends

* Black-box entry subcircuit for gf180mcu_fd_sc_mcu7t5v0__clkinv_2 abstract view
.subckt gf180mcu_fd_sc_mcu7t5v0__clkinv_2 I ZN VDD VNW VPW VSS
.ends

* Black-box entry subcircuit for gf180mcu_fd_sc_mcu7t5v0__oai32_1 abstract view
.subckt gf180mcu_fd_sc_mcu7t5v0__oai32_1 A1 A2 A3 B1 B2 ZN VDD VNW VPW VSS
.ends

* Black-box entry subcircuit for gf180mcu_fd_sc_mcu7t5v0__or3_1 abstract view
.subckt gf180mcu_fd_sc_mcu7t5v0__or3_1 A1 A2 A3 Z VDD VNW VPW VSS
.ends

* Black-box entry subcircuit for gf180mcu_fd_sc_mcu7t5v0__or4_1 abstract view
.subckt gf180mcu_fd_sc_mcu7t5v0__or4_1 A1 A2 A3 A4 Z VDD VNW VPW VSS
.ends

* Black-box entry subcircuit for gf180mcu_fd_sc_mcu7t5v0__tiel abstract view
.subckt gf180mcu_fd_sc_mcu7t5v0__tiel ZN VDD VNW VPW VSS
.ends

* Black-box entry subcircuit for gf180mcu_fd_sc_mcu7t5v0__oai32_2 abstract view
.subckt gf180mcu_fd_sc_mcu7t5v0__oai32_2 A1 A2 A3 B1 B2 ZN VDD VNW VPW VSS
.ends

* Black-box entry subcircuit for gf180mcu_fd_sc_mcu7t5v0__oai221_2 abstract view
.subckt gf180mcu_fd_sc_mcu7t5v0__oai221_2 A1 A2 B1 B2 C ZN VDD VNW VPW VSS
.ends

* Black-box entry subcircuit for gf180mcu_fd_sc_mcu7t5v0__nand4_4 abstract view
.subckt gf180mcu_fd_sc_mcu7t5v0__nand4_4 A1 A2 A3 A4 ZN VDD VNW VPW VSS
.ends

* Black-box entry subcircuit for gf180mcu_fd_sc_mcu7t5v0__nor4_2 abstract view
.subckt gf180mcu_fd_sc_mcu7t5v0__nor4_2 A1 A2 A3 A4 ZN VDD VNW VPW VSS
.ends

* Black-box entry subcircuit for gf180mcu_fd_sc_mcu7t5v0__xnor2_1 abstract view
.subckt gf180mcu_fd_sc_mcu7t5v0__xnor2_1 A1 A2 ZN VDD VNW VPW VSS
.ends

* Black-box entry subcircuit for gf180mcu_fd_sc_mcu7t5v0__clkinv_3 abstract view
.subckt gf180mcu_fd_sc_mcu7t5v0__clkinv_3 I ZN VDD VNW VPW VSS
.ends

* Black-box entry subcircuit for gf180mcu_fd_sc_mcu7t5v0__xor2_2 abstract view
.subckt gf180mcu_fd_sc_mcu7t5v0__xor2_2 A1 A2 Z VDD VNW VPW VSS
.ends

* Black-box entry subcircuit for gf180mcu_fd_sc_mcu7t5v0__and4_1 abstract view
.subckt gf180mcu_fd_sc_mcu7t5v0__and4_1 A1 A2 A3 A4 Z VDD VNW VPW VSS
.ends

* Black-box entry subcircuit for gf180mcu_fd_sc_mcu7t5v0__aoi211_1 abstract view
.subckt gf180mcu_fd_sc_mcu7t5v0__aoi211_1 A1 A2 B C ZN VDD VNW VPW VSS
.ends

* Black-box entry subcircuit for gf180mcu_fd_sc_mcu7t5v0__dffq_4 abstract view
.subckt gf180mcu_fd_sc_mcu7t5v0__dffq_4 D CLK Q VDD VNW VPW VSS
.ends

.subckt interconnect_inner c0_disable c0_i_core_int_sreg[0] c0_i_core_int_sreg[11]
+ c0_i_core_int_sreg[12] c0_i_core_int_sreg[13] c0_i_core_int_sreg[14] c0_i_core_int_sreg[15]
+ c0_i_core_int_sreg[1] c0_i_core_int_sreg[4] c0_i_core_int_sreg[5] c0_i_irq c0_i_mc_core_int
+ c0_i_mem_ack c0_i_mem_data[0] c0_i_mem_data[10] c0_i_mem_data[11] c0_i_mem_data[12]
+ c0_i_mem_data[13] c0_i_mem_data[14] c0_i_mem_data[15] c0_i_mem_data[1] c0_i_mem_data[2]
+ c0_i_mem_data[3] c0_i_mem_data[4] c0_i_mem_data[5] c0_i_mem_data[6] c0_i_mem_data[7]
+ c0_i_mem_data[8] c0_i_mem_data[9] c0_i_mem_exception c0_i_req_data[0] c0_i_req_data[10]
+ c0_i_req_data[11] c0_i_req_data[12] c0_i_req_data[13] c0_i_req_data[14] c0_i_req_data[15]
+ c0_i_req_data[16] c0_i_req_data[17] c0_i_req_data[18] c0_i_req_data[19] c0_i_req_data[1]
+ c0_i_req_data[20] c0_i_req_data[21] c0_i_req_data[22] c0_i_req_data[23] c0_i_req_data[24]
+ c0_i_req_data[25] c0_i_req_data[26] c0_i_req_data[27] c0_i_req_data[28] c0_i_req_data[29]
+ c0_i_req_data[2] c0_i_req_data[30] c0_i_req_data[31] c0_i_req_data[3] c0_i_req_data[4]
+ c0_i_req_data[5] c0_i_req_data[6] c0_i_req_data[7] c0_i_req_data[8] c0_i_req_data[9]
+ c0_i_req_data_valid c0_o_c_data_page c0_o_c_instr_long c0_o_c_instr_page c0_o_icache_flush
+ c0_o_instr_long_addr[0] c0_o_instr_long_addr[1] c0_o_instr_long_addr[2] c0_o_instr_long_addr[3]
+ c0_o_instr_long_addr[4] c0_o_instr_long_addr[5] c0_o_instr_long_addr[6] c0_o_instr_long_addr[7]
+ c0_o_mem_addr[0] c0_o_mem_addr[10] c0_o_mem_addr[11] c0_o_mem_addr[12] c0_o_mem_addr[13]
+ c0_o_mem_addr[14] c0_o_mem_addr[15] c0_o_mem_addr[1] c0_o_mem_addr[2] c0_o_mem_addr[3]
+ c0_o_mem_addr[4] c0_o_mem_addr[5] c0_o_mem_addr[6] c0_o_mem_addr[7] c0_o_mem_addr[8]
+ c0_o_mem_addr[9] c0_o_mem_data[0] c0_o_mem_data[10] c0_o_mem_data[11] c0_o_mem_data[12]
+ c0_o_mem_data[13] c0_o_mem_data[14] c0_o_mem_data[15] c0_o_mem_data[1] c0_o_mem_data[2]
+ c0_o_mem_data[3] c0_o_mem_data[4] c0_o_mem_data[5] c0_o_mem_data[6] c0_o_mem_data[7]
+ c0_o_mem_data[8] c0_o_mem_data[9] c0_o_mem_high_addr[0] c0_o_mem_high_addr[1] c0_o_mem_high_addr[2]
+ c0_o_mem_high_addr[3] c0_o_mem_high_addr[4] c0_o_mem_high_addr[5] c0_o_mem_high_addr[6]
+ c0_o_mem_high_addr[7] c0_o_mem_long_mode c0_o_mem_req c0_o_mem_sel[0] c0_o_mem_sel[1]
+ c0_o_mem_we c0_o_req_active c0_o_req_addr[0] c0_o_req_addr[10] c0_o_req_addr[11]
+ c0_o_req_addr[12] c0_o_req_addr[13] c0_o_req_addr[14] c0_o_req_addr[15] c0_o_req_addr[1]
+ c0_o_req_addr[2] c0_o_req_addr[3] c0_o_req_addr[4] c0_o_req_addr[5] c0_o_req_addr[6]
+ c0_o_req_addr[7] c0_o_req_addr[8] c0_o_req_addr[9] c0_o_req_ppl_submit c0_rst c0_sr_bus_addr[0]
+ c0_sr_bus_addr[10] c0_sr_bus_addr[11] c0_sr_bus_addr[12] c0_sr_bus_addr[13] c0_sr_bus_addr[14]
+ c0_sr_bus_addr[15] c0_sr_bus_addr[1] c0_sr_bus_addr[2] c0_sr_bus_addr[3] c0_sr_bus_addr[4]
+ c0_sr_bus_addr[5] c0_sr_bus_addr[6] c0_sr_bus_addr[7] c0_sr_bus_addr[8] c0_sr_bus_addr[9]
+ c0_sr_bus_data_o[0] c0_sr_bus_data_o[10] c0_sr_bus_data_o[11] c0_sr_bus_data_o[12]
+ c0_sr_bus_data_o[13] c0_sr_bus_data_o[14] c0_sr_bus_data_o[15] c0_sr_bus_data_o[1]
+ c0_sr_bus_data_o[2] c0_sr_bus_data_o[3] c0_sr_bus_data_o[4] c0_sr_bus_data_o[5]
+ c0_sr_bus_data_o[6] c0_sr_bus_data_o[7] c0_sr_bus_data_o[8] c0_sr_bus_data_o[9]
+ c0_sr_bus_we c1_dbg_pc[0] c1_dbg_pc[10] c1_dbg_pc[11] c1_dbg_pc[12] c1_dbg_pc[13]
+ c1_dbg_pc[14] c1_dbg_pc[15] c1_dbg_pc[1] c1_dbg_pc[2] c1_dbg_pc[3] c1_dbg_pc[4]
+ c1_dbg_pc[5] c1_dbg_pc[6] c1_dbg_pc[7] c1_dbg_pc[8] c1_dbg_pc[9] c1_dbg_r0[0] c1_dbg_r0[10]
+ c1_dbg_r0[11] c1_dbg_r0[12] c1_dbg_r0[13] c1_dbg_r0[14] c1_dbg_r0[15] c1_dbg_r0[1]
+ c1_dbg_r0[2] c1_dbg_r0[3] c1_dbg_r0[4] c1_dbg_r0[5] c1_dbg_r0[6] c1_dbg_r0[7] c1_dbg_r0[8]
+ c1_dbg_r0[9] c1_disable c1_i_core_int_sreg[0] c1_i_core_int_sreg[1] c1_i_core_int_sreg[6]
+ c1_i_core_int_sreg[7] c1_i_core_int_sreg[8] c1_i_core_int_sreg[9] c1_i_irq c1_i_mc_core_int
+ c1_i_mem_ack c1_i_mem_data[0] c1_i_mem_data[10] c1_i_mem_data[11] c1_i_mem_data[12]
+ c1_i_mem_data[13] c1_i_mem_data[14] c1_i_mem_data[15] c1_i_mem_data[1] c1_i_mem_data[2]
+ c1_i_mem_data[3] c1_i_mem_data[4] c1_i_mem_data[5] c1_i_mem_data[6] c1_i_mem_data[7]
+ c1_i_mem_data[8] c1_i_mem_data[9] c1_i_mem_exception c1_i_req_data[0] c1_i_req_data[10]
+ c1_i_req_data[11] c1_i_req_data[12] c1_i_req_data[13] c1_i_req_data[14] c1_i_req_data[15]
+ c1_i_req_data[16] c1_i_req_data[17] c1_i_req_data[18] c1_i_req_data[19] c1_i_req_data[1]
+ c1_i_req_data[20] c1_i_req_data[21] c1_i_req_data[22] c1_i_req_data[23] c1_i_req_data[24]
+ c1_i_req_data[25] c1_i_req_data[26] c1_i_req_data[27] c1_i_req_data[28] c1_i_req_data[29]
+ c1_i_req_data[2] c1_i_req_data[30] c1_i_req_data[31] c1_i_req_data[3] c1_i_req_data[4]
+ c1_i_req_data[5] c1_i_req_data[6] c1_i_req_data[7] c1_i_req_data[8] c1_i_req_data[9]
+ c1_i_req_data_valid c1_o_c_data_page c1_o_c_instr_long c1_o_c_instr_page c1_o_icache_flush
+ c1_o_instr_long_addr[0] c1_o_instr_long_addr[1] c1_o_instr_long_addr[2] c1_o_instr_long_addr[3]
+ c1_o_instr_long_addr[4] c1_o_instr_long_addr[5] c1_o_instr_long_addr[6] c1_o_instr_long_addr[7]
+ c1_o_mem_addr[0] c1_o_mem_addr[10] c1_o_mem_addr[11] c1_o_mem_addr[12] c1_o_mem_addr[13]
+ c1_o_mem_addr[14] c1_o_mem_addr[15] c1_o_mem_addr[1] c1_o_mem_addr[2] c1_o_mem_addr[3]
+ c1_o_mem_addr[4] c1_o_mem_addr[5] c1_o_mem_addr[6] c1_o_mem_addr[7] c1_o_mem_addr[8]
+ c1_o_mem_addr[9] c1_o_mem_data[0] c1_o_mem_data[10] c1_o_mem_data[11] c1_o_mem_data[12]
+ c1_o_mem_data[13] c1_o_mem_data[14] c1_o_mem_data[15] c1_o_mem_data[1] c1_o_mem_data[2]
+ c1_o_mem_data[3] c1_o_mem_data[4] c1_o_mem_data[5] c1_o_mem_data[6] c1_o_mem_data[7]
+ c1_o_mem_data[8] c1_o_mem_data[9] c1_o_mem_high_addr[0] c1_o_mem_high_addr[1] c1_o_mem_high_addr[2]
+ c1_o_mem_high_addr[3] c1_o_mem_high_addr[4] c1_o_mem_high_addr[5] c1_o_mem_high_addr[6]
+ c1_o_mem_high_addr[7] c1_o_mem_long_mode c1_o_mem_req c1_o_mem_sel[0] c1_o_mem_sel[1]
+ c1_o_mem_we c1_o_req_active c1_o_req_addr[0] c1_o_req_addr[10] c1_o_req_addr[11]
+ c1_o_req_addr[12] c1_o_req_addr[13] c1_o_req_addr[14] c1_o_req_addr[15] c1_o_req_addr[1]
+ c1_o_req_addr[2] c1_o_req_addr[3] c1_o_req_addr[4] c1_o_req_addr[5] c1_o_req_addr[6]
+ c1_o_req_addr[7] c1_o_req_addr[8] c1_o_req_addr[9] c1_o_req_ppl_submit c1_rst c1_sr_bus_addr[0]
+ c1_sr_bus_addr[10] c1_sr_bus_addr[11] c1_sr_bus_addr[12] c1_sr_bus_addr[13] c1_sr_bus_addr[14]
+ c1_sr_bus_addr[15] c1_sr_bus_addr[1] c1_sr_bus_addr[2] c1_sr_bus_addr[3] c1_sr_bus_addr[4]
+ c1_sr_bus_addr[5] c1_sr_bus_addr[6] c1_sr_bus_addr[7] c1_sr_bus_addr[8] c1_sr_bus_addr[9]
+ c1_sr_bus_data_o[0] c1_sr_bus_data_o[10] c1_sr_bus_data_o[11] c1_sr_bus_data_o[12]
+ c1_sr_bus_data_o[13] c1_sr_bus_data_o[14] c1_sr_bus_data_o[15] c1_sr_bus_data_o[1]
+ c1_sr_bus_data_o[2] c1_sr_bus_data_o[3] c1_sr_bus_data_o[4] c1_sr_bus_data_o[5]
+ c1_sr_bus_data_o[6] c1_sr_bus_data_o[7] c1_sr_bus_data_o[8] c1_sr_bus_data_o[9]
+ c1_sr_bus_we core_clock core_reset dcache_mem_ack dcache_mem_addr[0] dcache_mem_addr[10]
+ dcache_mem_addr[11] dcache_mem_addr[12] dcache_mem_addr[13] dcache_mem_addr[14]
+ dcache_mem_addr[15] dcache_mem_addr[16] dcache_mem_addr[17] dcache_mem_addr[18]
+ dcache_mem_addr[19] dcache_mem_addr[1] dcache_mem_addr[20] dcache_mem_addr[21] dcache_mem_addr[22]
+ dcache_mem_addr[23] dcache_mem_addr[2] dcache_mem_addr[3] dcache_mem_addr[4] dcache_mem_addr[5]
+ dcache_mem_addr[6] dcache_mem_addr[7] dcache_mem_addr[8] dcache_mem_addr[9] dcache_mem_cache_enable
+ dcache_mem_exception dcache_mem_i_data[0] dcache_mem_i_data[10] dcache_mem_i_data[11]
+ dcache_mem_i_data[12] dcache_mem_i_data[13] dcache_mem_i_data[14] dcache_mem_i_data[15]
+ dcache_mem_i_data[1] dcache_mem_i_data[2] dcache_mem_i_data[3] dcache_mem_i_data[4]
+ dcache_mem_i_data[5] dcache_mem_i_data[6] dcache_mem_i_data[7] dcache_mem_i_data[8]
+ dcache_mem_i_data[9] dcache_mem_o_data[0] dcache_mem_o_data[10] dcache_mem_o_data[11]
+ dcache_mem_o_data[12] dcache_mem_o_data[13] dcache_mem_o_data[14] dcache_mem_o_data[15]
+ dcache_mem_o_data[1] dcache_mem_o_data[2] dcache_mem_o_data[3] dcache_mem_o_data[4]
+ dcache_mem_o_data[5] dcache_mem_o_data[6] dcache_mem_o_data[7] dcache_mem_o_data[8]
+ dcache_mem_o_data[9] dcache_mem_req dcache_mem_sel[0] dcache_mem_sel[1] dcache_mem_we
+ dcache_rst dcache_wb_4_burst dcache_wb_ack dcache_wb_adr[0] dcache_wb_adr[10] dcache_wb_adr[11]
+ dcache_wb_adr[12] dcache_wb_adr[13] dcache_wb_adr[14] dcache_wb_adr[15] dcache_wb_adr[16]
+ dcache_wb_adr[17] dcache_wb_adr[18] dcache_wb_adr[19] dcache_wb_adr[1] dcache_wb_adr[20]
+ dcache_wb_adr[21] dcache_wb_adr[22] dcache_wb_adr[23] dcache_wb_adr[2] dcache_wb_adr[3]
+ dcache_wb_adr[4] dcache_wb_adr[5] dcache_wb_adr[6] dcache_wb_adr[7] dcache_wb_adr[8]
+ dcache_wb_adr[9] dcache_wb_cyc dcache_wb_err dcache_wb_i_dat[0] dcache_wb_i_dat[10]
+ dcache_wb_i_dat[11] dcache_wb_i_dat[12] dcache_wb_i_dat[13] dcache_wb_i_dat[14]
+ dcache_wb_i_dat[15] dcache_wb_i_dat[1] dcache_wb_i_dat[2] dcache_wb_i_dat[3] dcache_wb_i_dat[4]
+ dcache_wb_i_dat[5] dcache_wb_i_dat[6] dcache_wb_i_dat[7] dcache_wb_i_dat[8] dcache_wb_i_dat[9]
+ dcache_wb_o_dat[0] dcache_wb_o_dat[10] dcache_wb_o_dat[11] dcache_wb_o_dat[12] dcache_wb_o_dat[13]
+ dcache_wb_o_dat[14] dcache_wb_o_dat[15] dcache_wb_o_dat[1] dcache_wb_o_dat[2] dcache_wb_o_dat[3]
+ dcache_wb_o_dat[4] dcache_wb_o_dat[5] dcache_wb_o_dat[6] dcache_wb_o_dat[7] dcache_wb_o_dat[8]
+ dcache_wb_o_dat[9] dcache_wb_sel[0] dcache_wb_sel[1] dcache_wb_stb dcache_wb_we
+ ic0_mem_ack ic0_mem_addr[0] ic0_mem_addr[10] ic0_mem_addr[11] ic0_mem_addr[12] ic0_mem_addr[13]
+ ic0_mem_addr[14] ic0_mem_addr[15] ic0_mem_addr[1] ic0_mem_addr[2] ic0_mem_addr[3]
+ ic0_mem_addr[4] ic0_mem_addr[5] ic0_mem_addr[6] ic0_mem_addr[7] ic0_mem_addr[8]
+ ic0_mem_addr[9] ic0_mem_cache_flush ic0_mem_data[0] ic0_mem_data[10] ic0_mem_data[11]
+ ic0_mem_data[12] ic0_mem_data[13] ic0_mem_data[14] ic0_mem_data[15] ic0_mem_data[16]
+ ic0_mem_data[17] ic0_mem_data[18] ic0_mem_data[19] ic0_mem_data[1] ic0_mem_data[20]
+ ic0_mem_data[21] ic0_mem_data[22] ic0_mem_data[23] ic0_mem_data[24] ic0_mem_data[25]
+ ic0_mem_data[26] ic0_mem_data[27] ic0_mem_data[28] ic0_mem_data[29] ic0_mem_data[2]
+ ic0_mem_data[30] ic0_mem_data[31] ic0_mem_data[3] ic0_mem_data[4] ic0_mem_data[5]
+ ic0_mem_data[6] ic0_mem_data[7] ic0_mem_data[8] ic0_mem_data[9] ic0_mem_ppl_submit
+ ic0_mem_req ic0_rst ic0_wb_ack ic0_wb_adr[0] ic0_wb_adr[10] ic0_wb_adr[11] ic0_wb_adr[12]
+ ic0_wb_adr[13] ic0_wb_adr[14] ic0_wb_adr[15] ic0_wb_adr[1] ic0_wb_adr[2] ic0_wb_adr[3]
+ ic0_wb_adr[4] ic0_wb_adr[5] ic0_wb_adr[6] ic0_wb_adr[7] ic0_wb_adr[8] ic0_wb_adr[9]
+ ic0_wb_cyc ic0_wb_err ic0_wb_i_dat[0] ic0_wb_i_dat[10] ic0_wb_i_dat[11] ic0_wb_i_dat[12]
+ ic0_wb_i_dat[13] ic0_wb_i_dat[14] ic0_wb_i_dat[15] ic0_wb_i_dat[1] ic0_wb_i_dat[2]
+ ic0_wb_i_dat[3] ic0_wb_i_dat[4] ic0_wb_i_dat[5] ic0_wb_i_dat[6] ic0_wb_i_dat[7]
+ ic0_wb_i_dat[8] ic0_wb_i_dat[9] ic0_wb_sel[0] ic0_wb_sel[1] ic0_wb_stb ic0_wb_we
+ ic1_mem_ack ic1_mem_addr[0] ic1_mem_addr[10] ic1_mem_addr[11] ic1_mem_addr[12] ic1_mem_addr[13]
+ ic1_mem_addr[14] ic1_mem_addr[15] ic1_mem_addr[1] ic1_mem_addr[2] ic1_mem_addr[3]
+ ic1_mem_addr[4] ic1_mem_addr[5] ic1_mem_addr[6] ic1_mem_addr[7] ic1_mem_addr[8]
+ ic1_mem_addr[9] ic1_mem_cache_flush ic1_mem_data[0] ic1_mem_data[10] ic1_mem_data[11]
+ ic1_mem_data[12] ic1_mem_data[13] ic1_mem_data[14] ic1_mem_data[15] ic1_mem_data[16]
+ ic1_mem_data[17] ic1_mem_data[18] ic1_mem_data[19] ic1_mem_data[1] ic1_mem_data[20]
+ ic1_mem_data[21] ic1_mem_data[22] ic1_mem_data[23] ic1_mem_data[24] ic1_mem_data[25]
+ ic1_mem_data[26] ic1_mem_data[27] ic1_mem_data[28] ic1_mem_data[29] ic1_mem_data[2]
+ ic1_mem_data[30] ic1_mem_data[31] ic1_mem_data[3] ic1_mem_data[4] ic1_mem_data[5]
+ ic1_mem_data[6] ic1_mem_data[7] ic1_mem_data[8] ic1_mem_data[9] ic1_mem_ppl_submit
+ ic1_mem_req ic1_rst ic1_wb_ack ic1_wb_adr[0] ic1_wb_adr[10] ic1_wb_adr[11] ic1_wb_adr[12]
+ ic1_wb_adr[13] ic1_wb_adr[14] ic1_wb_adr[15] ic1_wb_adr[1] ic1_wb_adr[2] ic1_wb_adr[3]
+ ic1_wb_adr[4] ic1_wb_adr[5] ic1_wb_adr[6] ic1_wb_adr[7] ic1_wb_adr[8] ic1_wb_adr[9]
+ ic1_wb_cyc ic1_wb_err ic1_wb_i_dat[0] ic1_wb_i_dat[10] ic1_wb_i_dat[11] ic1_wb_i_dat[12]
+ ic1_wb_i_dat[13] ic1_wb_i_dat[14] ic1_wb_i_dat[15] ic1_wb_i_dat[1] ic1_wb_i_dat[2]
+ ic1_wb_i_dat[3] ic1_wb_i_dat[4] ic1_wb_i_dat[5] ic1_wb_i_dat[6] ic1_wb_i_dat[7]
+ ic1_wb_i_dat[8] ic1_wb_i_dat[9] ic1_wb_sel[0] ic1_wb_sel[1] ic1_wb_stb ic1_wb_we
+ inner_disable inner_embed_mode inner_ext_irq inner_wb_4_burst inner_wb_8_burst inner_wb_ack
+ inner_wb_adr[0] inner_wb_adr[10] inner_wb_adr[11] inner_wb_adr[12] inner_wb_adr[13]
+ inner_wb_adr[14] inner_wb_adr[15] inner_wb_adr[16] inner_wb_adr[17] inner_wb_adr[18]
+ inner_wb_adr[19] inner_wb_adr[1] inner_wb_adr[20] inner_wb_adr[21] inner_wb_adr[22]
+ inner_wb_adr[23] inner_wb_adr[2] inner_wb_adr[3] inner_wb_adr[4] inner_wb_adr[5]
+ inner_wb_adr[6] inner_wb_adr[7] inner_wb_adr[8] inner_wb_adr[9] inner_wb_cyc inner_wb_err
+ inner_wb_i_dat[0] inner_wb_i_dat[10] inner_wb_i_dat[11] inner_wb_i_dat[12] inner_wb_i_dat[13]
+ inner_wb_i_dat[14] inner_wb_i_dat[15] inner_wb_i_dat[1] inner_wb_i_dat[2] inner_wb_i_dat[3]
+ inner_wb_i_dat[4] inner_wb_i_dat[5] inner_wb_i_dat[6] inner_wb_i_dat[7] inner_wb_i_dat[8]
+ inner_wb_i_dat[9] inner_wb_o_dat[0] inner_wb_o_dat[10] inner_wb_o_dat[11] inner_wb_o_dat[12]
+ inner_wb_o_dat[13] inner_wb_o_dat[14] inner_wb_o_dat[15] inner_wb_o_dat[1] inner_wb_o_dat[2]
+ inner_wb_o_dat[3] inner_wb_o_dat[4] inner_wb_o_dat[5] inner_wb_o_dat[6] inner_wb_o_dat[7]
+ inner_wb_o_dat[8] inner_wb_o_dat[9] inner_wb_sel[0] inner_wb_sel[1] inner_wb_stb
+ inner_wb_we vccd1 vssd1 c1_i_core_int_sreg[11] c0_i_core_int_sreg[3] c0_i_core_int_sreg[2]
+ c1_i_core_int_sreg[10] c0_i_core_int_sreg[10] c0_i_core_int_sreg[9] c0_i_core_int_sreg[8]
+ c1_i_core_int_sreg[5] c0_i_core_int_sreg[7] c1_i_core_int_sreg[15] c1_i_core_int_sreg[4]
+ c1_i_core_int_sreg[3] c1_i_core_int_sreg[14] c0_i_core_int_sreg[6] c1_i_core_int_sreg[13]
+ c1_i_core_int_sreg[2] c1_i_core_int_sreg[12]
XANTENNA__3140__A1 net155 vccd1 vccd1 vssd1 vssd1 gf180mcu_fd_sc_mcu7t5v0__antenna
XFILLER_0_39_1805 vccd1 vccd1 vssd1 vssd1 gf180mcu_fd_sc_mcu7t5v0__fill_2
Xclkbuf_leaf_83_core_clock clknet_4_10__leaf_core_clock clknet_leaf_83_core_clock
+ vccd1 vccd1 vssd1 vssd1 gf180mcu_fd_sc_mcu7t5v0__clkbuf_16
XFILLER_0_74_1707 vccd1 vccd1 vssd1 vssd1 gf180mcu_fd_sc_mcu7t5v0__fill_2
XANTENNA__3114__I _0863_ vccd1 vccd1 vssd1 vssd1 gf180mcu_fd_sc_mcu7t5v0__antenna
X_3155_ net122 _0905_ vccd1 vccd1 vssd1 vssd1 gf180mcu_fd_sc_mcu7t5v0__inv_1
XFILLER_0_78_1898 vccd1 vccd1 vssd1 vssd1 gf180mcu_fd_sc_mcu7t5v0__fill_2
X_3086_ _0845_ net529 vccd1 vccd1 vssd1 vssd1 gf180mcu_fd_sc_mcu7t5v0__clkbuf_1