* NGSPICE file created from interconnect_outer.ext - technology: gf180mcuD

* Black-box entry subcircuit for gf180mcu_fd_sc_mcu7t5v0__mux2_2 abstract view
.subckt gf180mcu_fd_sc_mcu7t5v0__mux2_2 I0 I1 S Z VDD VNW VPW VSS
.ends

* Black-box entry subcircuit for gf180mcu_fd_sc_mcu7t5v0__nand2_1 abstract view
.subckt gf180mcu_fd_sc_mcu7t5v0__nand2_1 A1 A2 ZN VDD VNW VPW VSS
.ends

* Black-box entry subcircuit for gf180mcu_fd_sc_mcu7t5v0__and2_1 abstract view
.subckt gf180mcu_fd_sc_mcu7t5v0__and2_1 A1 A2 Z VDD VNW VPW VSS
.ends

* Black-box entry subcircuit for gf180mcu_fd_sc_mcu7t5v0__fillcap_16 abstract view
.subckt gf180mcu_fd_sc_mcu7t5v0__fillcap_16 VDD VNW VPW VSS
.ends

* Black-box entry subcircuit for gf180mcu_fd_sc_mcu7t5v0__antenna abstract view
.subckt gf180mcu_fd_sc_mcu7t5v0__antenna I VDD VNW VPW VSS
.ends

* Black-box entry subcircuit for gf180mcu_fd_sc_mcu7t5v0__fill_2 abstract view
.subckt gf180mcu_fd_sc_mcu7t5v0__fill_2 VDD VNW VPW VSS
.ends

* Black-box entry subcircuit for gf180mcu_fd_sc_mcu7t5v0__fill_1 abstract view
.subckt gf180mcu_fd_sc_mcu7t5v0__fill_1 VDD VNW VPW VSS
.ends

* Black-box entry subcircuit for gf180mcu_fd_sc_mcu7t5v0__fillcap_32 abstract view
.subckt gf180mcu_fd_sc_mcu7t5v0__fillcap_32 VDD VNW VPW VSS
.ends

* Black-box entry subcircuit for gf180mcu_fd_sc_mcu7t5v0__filltie abstract view
.subckt gf180mcu_fd_sc_mcu7t5v0__filltie VDD VSS
.ends

* Black-box entry subcircuit for gf180mcu_fd_sc_mcu7t5v0__fillcap_4 abstract view
.subckt gf180mcu_fd_sc_mcu7t5v0__fillcap_4 VDD VNW VPW VSS
.ends

* Black-box entry subcircuit for gf180mcu_fd_sc_mcu7t5v0__fillcap_8 abstract view
.subckt gf180mcu_fd_sc_mcu7t5v0__fillcap_8 VDD VNW VPW VSS
.ends

* Black-box entry subcircuit for gf180mcu_fd_sc_mcu7t5v0__clkbuf_1 abstract view
.subckt gf180mcu_fd_sc_mcu7t5v0__clkbuf_1 I Z VDD VNW VPW VSS
.ends

* Black-box entry subcircuit for gf180mcu_fd_sc_mcu7t5v0__oai21_1 abstract view
.subckt gf180mcu_fd_sc_mcu7t5v0__oai21_1 A1 A2 B ZN VDD VNW VPW VSS
.ends

* Black-box entry subcircuit for gf180mcu_fd_sc_mcu7t5v0__nor2_1 abstract view
.subckt gf180mcu_fd_sc_mcu7t5v0__nor2_1 A1 A2 ZN VDD VNW VPW VSS
.ends

* Black-box entry subcircuit for gf180mcu_fd_sc_mcu7t5v0__or2_1 abstract view
.subckt gf180mcu_fd_sc_mcu7t5v0__or2_1 A1 A2 Z VDD VNW VPW VSS
.ends

* Black-box entry subcircuit for gf180mcu_fd_sc_mcu7t5v0__clkbuf_16 abstract view
.subckt gf180mcu_fd_sc_mcu7t5v0__clkbuf_16 I Z VDD VNW VPW VSS
.ends

* Black-box entry subcircuit for gf180mcu_fd_sc_mcu7t5v0__aoi21_1 abstract view
.subckt gf180mcu_fd_sc_mcu7t5v0__aoi21_1 A1 A2 B ZN VDD VNW VPW VSS
.ends

* Black-box entry subcircuit for gf180mcu_fd_sc_mcu7t5v0__aoi211_1 abstract view
.subckt gf180mcu_fd_sc_mcu7t5v0__aoi211_1 A1 A2 B C ZN VDD VNW VPW VSS
.ends

* Black-box entry subcircuit for gf180mcu_fd_sc_mcu7t5v0__aoi22_1 abstract view
.subckt gf180mcu_fd_sc_mcu7t5v0__aoi22_1 A1 A2 B1 B2 ZN VDD VNW VPW VSS
.ends

* Black-box entry subcircuit for gf180mcu_fd_sc_mcu7t5v0__oai221_1 abstract view
.subckt gf180mcu_fd_sc_mcu7t5v0__oai221_1 A1 A2 B1 B2 C ZN VDD VNW VPW VSS
.ends

* Black-box entry subcircuit for gf180mcu_fd_sc_mcu7t5v0__dffq_1 abstract view
.subckt gf180mcu_fd_sc_mcu7t5v0__dffq_1 D CLK Q VDD VNW VPW VSS
.ends

* Black-box entry subcircuit for gf180mcu_fd_sc_mcu7t5v0__clkbuf_8 abstract view
.subckt gf180mcu_fd_sc_mcu7t5v0__clkbuf_8 I Z VDD VNW VPW VSS
.ends

* Black-box entry subcircuit for gf180mcu_fd_sc_mcu7t5v0__endcap abstract view
.subckt gf180mcu_fd_sc_mcu7t5v0__endcap VDD VSS
.ends

* Black-box entry subcircuit for gf180mcu_fd_sc_mcu7t5v0__nor3_1 abstract view
.subckt gf180mcu_fd_sc_mcu7t5v0__nor3_1 A1 A2 A3 ZN VDD VNW VPW VSS
.ends

* Black-box entry subcircuit for gf180mcu_fd_sc_mcu7t5v0__oai21_2 abstract view
.subckt gf180mcu_fd_sc_mcu7t5v0__oai21_2 A1 A2 B ZN VDD VNW VPW VSS
.ends

* Black-box entry subcircuit for gf180mcu_fd_sc_mcu7t5v0__buf_3 abstract view
.subckt gf180mcu_fd_sc_mcu7t5v0__buf_3 I Z VDD VNW VPW VSS
.ends

* Black-box entry subcircuit for gf180mcu_fd_sc_mcu7t5v0__dffq_2 abstract view
.subckt gf180mcu_fd_sc_mcu7t5v0__dffq_2 D CLK Q VDD VNW VPW VSS
.ends

* Black-box entry subcircuit for gf180mcu_fd_sc_mcu7t5v0__dlyb_1 abstract view
.subckt gf180mcu_fd_sc_mcu7t5v0__dlyb_1 I Z VDD VNW VPW VSS
.ends

* Black-box entry subcircuit for gf180mcu_fd_sc_mcu7t5v0__nand2_2 abstract view
.subckt gf180mcu_fd_sc_mcu7t5v0__nand2_2 A1 A2 ZN VDD VNW VPW VSS
.ends

* Black-box entry subcircuit for gf180mcu_fd_sc_mcu7t5v0__clkinv_2 abstract view
.subckt gf180mcu_fd_sc_mcu7t5v0__clkinv_2 I ZN VDD VNW VPW VSS
.ends

* Black-box entry subcircuit for gf180mcu_fd_sc_mcu7t5v0__nor2_4 abstract view
.subckt gf180mcu_fd_sc_mcu7t5v0__nor2_4 A1 A2 ZN VDD VNW VPW VSS
.ends

* Black-box entry subcircuit for gf180mcu_fd_sc_mcu7t5v0__aoi211_4 abstract view
.subckt gf180mcu_fd_sc_mcu7t5v0__aoi211_4 A1 A2 B C ZN VDD VNW VPW VSS
.ends

* Black-box entry subcircuit for gf180mcu_fd_sc_mcu7t5v0__clkbuf_2 abstract view
.subckt gf180mcu_fd_sc_mcu7t5v0__clkbuf_2 I Z VDD VNW VPW VSS
.ends

* Black-box entry subcircuit for gf180mcu_fd_sc_mcu7t5v0__nor4_4 abstract view
.subckt gf180mcu_fd_sc_mcu7t5v0__nor4_4 A1 A2 A3 A4 ZN VDD VNW VPW VSS
.ends

* Black-box entry subcircuit for gf180mcu_fd_sc_mcu7t5v0__clkinv_1 abstract view
.subckt gf180mcu_fd_sc_mcu7t5v0__clkinv_1 I ZN VDD VNW VPW VSS
.ends

* Black-box entry subcircuit for gf180mcu_fd_sc_mcu7t5v0__and3_1 abstract view
.subckt gf180mcu_fd_sc_mcu7t5v0__and3_1 A1 A2 A3 Z VDD VNW VPW VSS
.ends

* Black-box entry subcircuit for gf180mcu_fd_sc_mcu7t5v0__clkbuf_3 abstract view
.subckt gf180mcu_fd_sc_mcu7t5v0__clkbuf_3 I Z VDD VNW VPW VSS
.ends

* Black-box entry subcircuit for gf180mcu_fd_sc_mcu7t5v0__nand2_4 abstract view
.subckt gf180mcu_fd_sc_mcu7t5v0__nand2_4 A1 A2 ZN VDD VNW VPW VSS
.ends

* Black-box entry subcircuit for gf180mcu_fd_sc_mcu7t5v0__clkbuf_4 abstract view
.subckt gf180mcu_fd_sc_mcu7t5v0__clkbuf_4 I Z VDD VNW VPW VSS
.ends

* Black-box entry subcircuit for gf180mcu_fd_sc_mcu7t5v0__mux4_1 abstract view
.subckt gf180mcu_fd_sc_mcu7t5v0__mux4_1 I0 I1 I2 I3 S0 S1 Z VDD VNW VPW VSS
.ends

* Black-box entry subcircuit for gf180mcu_fd_sc_mcu7t5v0__oai211_4 abstract view
.subckt gf180mcu_fd_sc_mcu7t5v0__oai211_4 A1 A2 B C ZN VDD VNW VPW VSS
.ends

* Black-box entry subcircuit for gf180mcu_fd_sc_mcu7t5v0__or2_2 abstract view
.subckt gf180mcu_fd_sc_mcu7t5v0__or2_2 A1 A2 Z VDD VNW VPW VSS
.ends

* Black-box entry subcircuit for gf180mcu_fd_sc_mcu7t5v0__nand4_4 abstract view
.subckt gf180mcu_fd_sc_mcu7t5v0__nand4_4 A1 A2 A3 A4 ZN VDD VNW VPW VSS
.ends

* Black-box entry subcircuit for gf180mcu_fd_sc_mcu7t5v0__buf_4 abstract view
.subckt gf180mcu_fd_sc_mcu7t5v0__buf_4 I Z VDD VNW VPW VSS
.ends

* Black-box entry subcircuit for gf180mcu_fd_sc_mcu7t5v0__fillcap_64 abstract view
.subckt gf180mcu_fd_sc_mcu7t5v0__fillcap_64 VDD VNW VPW VSS
.ends

* Black-box entry subcircuit for gf180mcu_fd_sc_mcu7t5v0__inv_2 abstract view
.subckt gf180mcu_fd_sc_mcu7t5v0__inv_2 I ZN VDD VNW VPW VSS
.ends

* Black-box entry subcircuit for gf180mcu_fd_sc_mcu7t5v0__oai21_4 abstract view
.subckt gf180mcu_fd_sc_mcu7t5v0__oai21_4 A1 A2 B ZN VDD VNW VPW VSS
.ends

* Black-box entry subcircuit for gf180mcu_fd_sc_mcu7t5v0__nor2_2 abstract view
.subckt gf180mcu_fd_sc_mcu7t5v0__nor2_2 A1 A2 ZN VDD VNW VPW VSS
.ends

* Black-box entry subcircuit for gf180mcu_fd_sc_mcu7t5v0__oai211_2 abstract view
.subckt gf180mcu_fd_sc_mcu7t5v0__oai211_2 A1 A2 B C ZN VDD VNW VPW VSS
.ends

* Black-box entry subcircuit for gf180mcu_fd_sc_mcu7t5v0__xor2_1 abstract view
.subckt gf180mcu_fd_sc_mcu7t5v0__xor2_1 A1 A2 Z VDD VNW VPW VSS
.ends

* Black-box entry subcircuit for gf180mcu_fd_sc_mcu7t5v0__oai22_1 abstract view
.subckt gf180mcu_fd_sc_mcu7t5v0__oai22_1 A1 A2 B1 B2 ZN VDD VNW VPW VSS
.ends

* Black-box entry subcircuit for gf180mcu_fd_sc_mcu7t5v0__buf_2 abstract view
.subckt gf180mcu_fd_sc_mcu7t5v0__buf_2 I Z VDD VNW VPW VSS
.ends

* Black-box entry subcircuit for gf180mcu_fd_sc_mcu7t5v0__aoi21_2 abstract view
.subckt gf180mcu_fd_sc_mcu7t5v0__aoi21_2 A1 A2 B ZN VDD VNW VPW VSS
.ends

* Black-box entry subcircuit for gf180mcu_fd_sc_mcu7t5v0__aoi21_4 abstract view
.subckt gf180mcu_fd_sc_mcu7t5v0__aoi21_4 A1 A2 B ZN VDD VNW VPW VSS
.ends

* Black-box entry subcircuit for gf180mcu_fd_sc_mcu7t5v0__nand3_4 abstract view
.subckt gf180mcu_fd_sc_mcu7t5v0__nand3_4 A1 A2 A3 ZN VDD VNW VPW VSS
.ends

* Black-box entry subcircuit for gf180mcu_fd_sc_mcu7t5v0__buf_1 abstract view
.subckt gf180mcu_fd_sc_mcu7t5v0__buf_1 I Z VDD VNW VPW VSS
.ends

* Black-box entry subcircuit for gf180mcu_fd_sc_mcu7t5v0__nand3_1 abstract view
.subckt gf180mcu_fd_sc_mcu7t5v0__nand3_1 A1 A2 A3 ZN VDD VNW VPW VSS
.ends

* Black-box entry subcircuit for gf180mcu_fd_sc_mcu7t5v0__aoi22_2 abstract view
.subckt gf180mcu_fd_sc_mcu7t5v0__aoi22_2 A1 A2 B1 B2 ZN VDD VNW VPW VSS
.ends

* Black-box entry subcircuit for gf180mcu_fd_sc_mcu7t5v0__xnor2_1 abstract view
.subckt gf180mcu_fd_sc_mcu7t5v0__xnor2_1 A1 A2 ZN VDD VNW VPW VSS
.ends

* Black-box entry subcircuit for gf180mcu_fd_sc_mcu7t5v0__tieh abstract view
.subckt gf180mcu_fd_sc_mcu7t5v0__tieh Z VDD VNW VPW VSS
.ends

* Black-box entry subcircuit for gf180mcu_fd_sc_mcu7t5v0__nor4_1 abstract view
.subckt gf180mcu_fd_sc_mcu7t5v0__nor4_1 A1 A2 A3 A4 ZN VDD VNW VPW VSS
.ends

* Black-box entry subcircuit for gf180mcu_fd_sc_mcu7t5v0__nor4_2 abstract view
.subckt gf180mcu_fd_sc_mcu7t5v0__nor4_2 A1 A2 A3 A4 ZN VDD VNW VPW VSS
.ends

* Black-box entry subcircuit for gf180mcu_fd_sc_mcu7t5v0__xor2_4 abstract view
.subckt gf180mcu_fd_sc_mcu7t5v0__xor2_4 A1 A2 Z VDD VNW VPW VSS
.ends

* Black-box entry subcircuit for gf180mcu_fd_sc_mcu7t5v0__nor3_2 abstract view
.subckt gf180mcu_fd_sc_mcu7t5v0__nor3_2 A1 A2 A3 ZN VDD VNW VPW VSS
.ends

* Black-box entry subcircuit for gf180mcu_fd_sc_mcu7t5v0__nor3_4 abstract view
.subckt gf180mcu_fd_sc_mcu7t5v0__nor3_4 A1 A2 A3 ZN VDD VNW VPW VSS
.ends

* Black-box entry subcircuit for gf180mcu_fd_sc_mcu7t5v0__and4_2 abstract view
.subckt gf180mcu_fd_sc_mcu7t5v0__and4_2 A1 A2 A3 A4 Z VDD VNW VPW VSS
.ends

* Black-box entry subcircuit for gf180mcu_fd_sc_mcu7t5v0__nand3_2 abstract view
.subckt gf180mcu_fd_sc_mcu7t5v0__nand3_2 A1 A2 A3 ZN VDD VNW VPW VSS
.ends

* Black-box entry subcircuit for gf180mcu_fd_sc_mcu7t5v0__dlyc_1 abstract view
.subckt gf180mcu_fd_sc_mcu7t5v0__dlyc_1 I Z VDD VNW VPW VSS
.ends

* Black-box entry subcircuit for gf180mcu_fd_sc_mcu7t5v0__oai211_1 abstract view
.subckt gf180mcu_fd_sc_mcu7t5v0__oai211_1 A1 A2 B C ZN VDD VNW VPW VSS
.ends

* Black-box entry subcircuit for gf180mcu_fd_sc_mcu7t5v0__tiel abstract view
.subckt gf180mcu_fd_sc_mcu7t5v0__tiel ZN VDD VNW VPW VSS
.ends

* Black-box entry subcircuit for gf180mcu_fd_sc_mcu7t5v0__and4_1 abstract view
.subckt gf180mcu_fd_sc_mcu7t5v0__and4_1 A1 A2 A3 A4 Z VDD VNW VPW VSS
.ends

* Black-box entry subcircuit for gf180mcu_fd_sc_mcu7t5v0__clkinv_3 abstract view
.subckt gf180mcu_fd_sc_mcu7t5v0__clkinv_3 I ZN VDD VNW VPW VSS
.ends

* Black-box entry subcircuit for gf180mcu_fd_sc_mcu7t5v0__aoi211_2 abstract view
.subckt gf180mcu_fd_sc_mcu7t5v0__aoi211_2 A1 A2 B C ZN VDD VNW VPW VSS
.ends

* Black-box entry subcircuit for gf180mcu_fd_sc_mcu7t5v0__and3_2 abstract view
.subckt gf180mcu_fd_sc_mcu7t5v0__and3_2 A1 A2 A3 Z VDD VNW VPW VSS
.ends

* Black-box entry subcircuit for gf180mcu_fd_sc_mcu7t5v0__inv_1 abstract view
.subckt gf180mcu_fd_sc_mcu7t5v0__inv_1 I ZN VDD VNW VPW VSS
.ends

* Black-box entry subcircuit for gf180mcu_fd_sc_mcu7t5v0__dffsnq_1 abstract view
.subckt gf180mcu_fd_sc_mcu7t5v0__dffsnq_1 D SETN CLK Q VDD VNW VPW VSS
.ends

* Black-box entry subcircuit for gf180mcu_fd_sc_mcu7t5v0__nand4_1 abstract view
.subckt gf180mcu_fd_sc_mcu7t5v0__nand4_1 A1 A2 A3 A4 ZN VDD VNW VPW VSS
.ends

* Black-box entry subcircuit for gf180mcu_fd_sc_mcu7t5v0__oai32_1 abstract view
.subckt gf180mcu_fd_sc_mcu7t5v0__oai32_1 A1 A2 A3 B1 B2 ZN VDD VNW VPW VSS
.ends

* Black-box entry subcircuit for gf180mcu_fd_sc_mcu7t5v0__oai31_1 abstract view
.subckt gf180mcu_fd_sc_mcu7t5v0__oai31_1 A1 A2 A3 B ZN VDD VNW VPW VSS
.ends

* Black-box entry subcircuit for gf180mcu_fd_sc_mcu7t5v0__and2_2 abstract view
.subckt gf180mcu_fd_sc_mcu7t5v0__and2_2 A1 A2 Z VDD VNW VPW VSS
.ends

* Black-box entry subcircuit for gf180mcu_fd_sc_mcu7t5v0__dffq_4 abstract view
.subckt gf180mcu_fd_sc_mcu7t5v0__dffq_4 D CLK Q VDD VNW VPW VSS
.ends

* Black-box entry subcircuit for gf180mcu_fd_sc_mcu7t5v0__xor2_2 abstract view
.subckt gf180mcu_fd_sc_mcu7t5v0__xor2_2 A1 A2 Z VDD VNW VPW VSS
.ends

* Black-box entry subcircuit for gf180mcu_fd_sc_mcu7t5v0__clkinv_4 abstract view
.subckt gf180mcu_fd_sc_mcu7t5v0__clkinv_4 I ZN VDD VNW VPW VSS
.ends

* Black-box entry subcircuit for gf180mcu_fd_sc_mcu7t5v0__mux2_4 abstract view
.subckt gf180mcu_fd_sc_mcu7t5v0__mux2_4 I0 I1 S Z VDD VNW VPW VSS
.ends

* Black-box entry subcircuit for gf180mcu_fd_sc_mcu7t5v0__or4_2 abstract view
.subckt gf180mcu_fd_sc_mcu7t5v0__or4_2 A1 A2 A3 A4 Z VDD VNW VPW VSS
.ends

* Black-box entry subcircuit for gf180mcu_fd_sc_mcu7t5v0__aoi221_1 abstract view
.subckt gf180mcu_fd_sc_mcu7t5v0__aoi221_1 A1 A2 B1 B2 C ZN VDD VNW VPW VSS
.ends

* Black-box entry subcircuit for gf180mcu_fd_sc_mcu7t5v0__or3_1 abstract view
.subckt gf180mcu_fd_sc_mcu7t5v0__or3_1 A1 A2 A3 Z VDD VNW VPW VSS
.ends

* Black-box entry subcircuit for gf180mcu_fd_sc_mcu7t5v0__mux4_4 abstract view
.subckt gf180mcu_fd_sc_mcu7t5v0__mux4_4 I0 I1 I2 I3 S0 S1 Z VDD VNW VPW VSS
.ends

* Black-box entry subcircuit for gf180mcu_fd_sc_mcu7t5v0__inv_3 abstract view
.subckt gf180mcu_fd_sc_mcu7t5v0__inv_3 I ZN VDD VNW VPW VSS
.ends

* Black-box entry subcircuit for gf180mcu_fd_sc_mcu7t5v0__oai222_2 abstract view
.subckt gf180mcu_fd_sc_mcu7t5v0__oai222_2 A1 A2 B1 B2 C1 C2 ZN VDD VNW VPW VSS
.ends

* Black-box entry subcircuit for gf180mcu_fd_sc_mcu7t5v0__xnor2_2 abstract view
.subckt gf180mcu_fd_sc_mcu7t5v0__xnor2_2 A1 A2 ZN VDD VNW VPW VSS
.ends

* Black-box entry subcircuit for gf180mcu_fd_sc_mcu7t5v0__oai32_2 abstract view
.subckt gf180mcu_fd_sc_mcu7t5v0__oai32_2 A1 A2 A3 B1 B2 ZN VDD VNW VPW VSS
.ends

* Black-box entry subcircuit for gf180mcu_fd_sc_mcu7t5v0__or4_1 abstract view
.subckt gf180mcu_fd_sc_mcu7t5v0__or4_1 A1 A2 A3 A4 Z VDD VNW VPW VSS
.ends

* Black-box entry subcircuit for gf180mcu_fd_sc_mcu7t5v0__aoi221_4 abstract view
.subckt gf180mcu_fd_sc_mcu7t5v0__aoi221_4 A1 A2 B1 B2 C ZN VDD VNW VPW VSS
.ends

* Black-box entry subcircuit for gf180mcu_fd_sc_mcu7t5v0__dlya_2 abstract view
.subckt gf180mcu_fd_sc_mcu7t5v0__dlya_2 I Z VDD VNW VPW VSS
.ends

* Black-box entry subcircuit for gf180mcu_fd_sc_mcu7t5v0__buf_8 abstract view
.subckt gf180mcu_fd_sc_mcu7t5v0__buf_8 I Z VDD VNW VPW VSS
.ends

* Black-box entry subcircuit for gf180mcu_fd_sc_mcu7t5v0__aoi22_4 abstract view
.subckt gf180mcu_fd_sc_mcu7t5v0__aoi22_4 A1 A2 B1 B2 ZN VDD VNW VPW VSS
.ends

* Black-box entry subcircuit for gf180mcu_fd_sc_mcu7t5v0__aoi221_2 abstract view
.subckt gf180mcu_fd_sc_mcu7t5v0__aoi221_2 A1 A2 B1 B2 C ZN VDD VNW VPW VSS
.ends

.subckt interconnect_outer c0_clk c1_clk dcache_clk ic0_clk ic1_clk inner_clock inner_disable
+ inner_embed_mode inner_ext_irq inner_reset inner_wb_4_burst inner_wb_8_burst inner_wb_ack
+ inner_wb_adr[0] inner_wb_adr[10] inner_wb_adr[11] inner_wb_adr[12] inner_wb_adr[13]
+ inner_wb_adr[14] inner_wb_adr[15] inner_wb_adr[16] inner_wb_adr[17] inner_wb_adr[18]
+ inner_wb_adr[19] inner_wb_adr[1] inner_wb_adr[20] inner_wb_adr[21] inner_wb_adr[22]
+ inner_wb_adr[23] inner_wb_adr[2] inner_wb_adr[3] inner_wb_adr[4] inner_wb_adr[5]
+ inner_wb_adr[6] inner_wb_adr[7] inner_wb_adr[8] inner_wb_adr[9] inner_wb_cyc inner_wb_err
+ inner_wb_i_dat[0] inner_wb_i_dat[10] inner_wb_i_dat[11] inner_wb_i_dat[12] inner_wb_i_dat[13]
+ inner_wb_i_dat[14] inner_wb_i_dat[15] inner_wb_i_dat[1] inner_wb_i_dat[2] inner_wb_i_dat[3]
+ inner_wb_i_dat[4] inner_wb_i_dat[5] inner_wb_i_dat[6] inner_wb_i_dat[7] inner_wb_i_dat[8]
+ inner_wb_i_dat[9] inner_wb_o_dat[0] inner_wb_o_dat[10] inner_wb_o_dat[11] inner_wb_o_dat[12]
+ inner_wb_o_dat[13] inner_wb_o_dat[14] inner_wb_o_dat[15] inner_wb_o_dat[1] inner_wb_o_dat[2]
+ inner_wb_o_dat[3] inner_wb_o_dat[4] inner_wb_o_dat[5] inner_wb_o_dat[6] inner_wb_o_dat[7]
+ inner_wb_o_dat[8] inner_wb_o_dat[9] inner_wb_sel[0] inner_wb_sel[1] inner_wb_stb
+ inner_wb_we iram_addr[0] iram_addr[1] iram_addr[2] iram_addr[3] iram_addr[4] iram_addr[5]
+ iram_clk iram_i_data[0] iram_i_data[10] iram_i_data[11] iram_i_data[12] iram_i_data[13]
+ iram_i_data[14] iram_i_data[15] iram_i_data[1] iram_i_data[2] iram_i_data[3] iram_i_data[4]
+ iram_i_data[5] iram_i_data[6] iram_i_data[7] iram_i_data[8] iram_i_data[9] iram_o_data[0]
+ iram_o_data[10] iram_o_data[11] iram_o_data[12] iram_o_data[13] iram_o_data[14]
+ iram_o_data[15] iram_o_data[1] iram_o_data[2] iram_o_data[3] iram_o_data[4] iram_o_data[5]
+ iram_o_data[6] iram_o_data[7] iram_o_data[8] iram_o_data[9] iram_we la_data_in[0]
+ la_data_in[10] la_data_in[11] la_data_in[12] la_data_in[13] la_data_in[14] la_data_in[15]
+ la_data_in[16] la_data_in[17] la_data_in[18] la_data_in[19] la_data_in[1] la_data_in[20]
+ la_data_in[21] la_data_in[22] la_data_in[23] la_data_in[24] la_data_in[25] la_data_in[26]
+ la_data_in[27] la_data_in[28] la_data_in[29] la_data_in[2] la_data_in[30] la_data_in[31]
+ la_data_in[32] la_data_in[33] la_data_in[34] la_data_in[35] la_data_in[36] la_data_in[37]
+ la_data_in[38] la_data_in[39] la_data_in[3] la_data_in[40] la_data_in[41] la_data_in[42]
+ la_data_in[43] la_data_in[44] la_data_in[45] la_data_in[46] la_data_in[47] la_data_in[48]
+ la_data_in[49] la_data_in[4] la_data_in[50] la_data_in[51] la_data_in[52] la_data_in[53]
+ la_data_in[54] la_data_in[55] la_data_in[56] la_data_in[57] la_data_in[58] la_data_in[59]
+ la_data_in[5] la_data_in[60] la_data_in[61] la_data_in[62] la_data_in[63] la_data_in[6]
+ la_data_in[7] la_data_in[8] la_data_in[9] la_data_out[0] la_data_out[11] la_data_out[16]
+ la_data_out[17] la_data_out[18] la_data_out[19] la_data_out[1] la_data_out[22] la_data_out[30]
+ la_data_out[31] la_data_out[32] la_data_out[33] la_data_out[34] la_data_out[35]
+ la_data_out[36] la_data_out[37] la_data_out[40] la_data_out[41] la_data_out[42]
+ la_data_out[43] la_data_out[44] la_data_out[45] la_data_out[46] la_data_out[47]
+ la_data_out[48] la_data_out[49] la_data_out[50] la_data_out[51] la_data_out[52]
+ la_data_out[53] la_data_out[54] la_data_out[60] la_data_out[61] la_data_out[62]
+ la_data_out[63] la_oenb[0] la_oenb[10] la_oenb[11] la_oenb[12] la_oenb[13] la_oenb[14]
+ la_oenb[15] la_oenb[16] la_oenb[17] la_oenb[18] la_oenb[19] la_oenb[1] la_oenb[20]
+ la_oenb[21] la_oenb[22] la_oenb[23] la_oenb[24] la_oenb[25] la_oenb[26] la_oenb[27]
+ la_oenb[28] la_oenb[29] la_oenb[2] la_oenb[30] la_oenb[31] la_oenb[32] la_oenb[33]
+ la_oenb[34] la_oenb[35] la_oenb[36] la_oenb[37] la_oenb[38] la_oenb[39] la_oenb[3]
+ la_oenb[40] la_oenb[41] la_oenb[42] la_oenb[43] la_oenb[44] la_oenb[45] la_oenb[46]
+ la_oenb[47] la_oenb[48] la_oenb[49] la_oenb[4] la_oenb[50] la_oenb[51] la_oenb[52]
+ la_oenb[53] la_oenb[54] la_oenb[55] la_oenb[56] la_oenb[57] la_oenb[58] la_oenb[59]
+ la_oenb[5] la_oenb[60] la_oenb[61] la_oenb[62] la_oenb[63] la_oenb[6] la_oenb[7]
+ la_oenb[8] la_oenb[9] m_io_in[0] m_io_in[10] m_io_in[11] m_io_in[12] m_io_in[13]
+ m_io_in[14] m_io_in[15] m_io_in[16] m_io_in[17] m_io_in[18] m_io_in[19] m_io_in[1]
+ m_io_in[20] m_io_in[21] m_io_in[22] m_io_in[23] m_io_in[24] m_io_in[25] m_io_in[26]
+ m_io_in[27] m_io_in[28] m_io_in[29] m_io_in[2] m_io_in[30] m_io_in[31] m_io_in[32]
+ m_io_in[33] m_io_in[34] m_io_in[35] m_io_in[36] m_io_in[37] m_io_in[3] m_io_in[4]
+ m_io_in[5] m_io_in[6] m_io_in[7] m_io_in[8] m_io_in[9] m_io_oeb[0] m_io_oeb[10]
+ m_io_oeb[11] m_io_oeb[12] m_io_oeb[13] m_io_oeb[14] m_io_oeb[15] m_io_oeb[16] m_io_oeb[17]
+ m_io_oeb[18] m_io_oeb[19] m_io_oeb[1] m_io_oeb[20] m_io_oeb[21] m_io_oeb[22] m_io_oeb[23]
+ m_io_oeb[24] m_io_oeb[25] m_io_oeb[26] m_io_oeb[28] m_io_oeb[29] m_io_oeb[2] m_io_oeb[30]
+ m_io_oeb[31] m_io_oeb[32] m_io_oeb[33] m_io_oeb[34] m_io_oeb[35] m_io_oeb[36] m_io_oeb[37]
+ m_io_oeb[3] m_io_oeb[4] m_io_oeb[5] m_io_oeb[6] m_io_oeb[7] m_io_oeb[8] m_io_oeb[9]
+ m_io_out[0] m_io_out[10] m_io_out[11] m_io_out[12] m_io_out[13] m_io_out[14] m_io_out[15]
+ m_io_out[16] m_io_out[17] m_io_out[18] m_io_out[19] m_io_out[1] m_io_out[20] m_io_out[21]
+ m_io_out[22] m_io_out[23] m_io_out[24] m_io_out[25] m_io_out[26] m_io_out[27] m_io_out[28]
+ m_io_out[29] m_io_out[2] m_io_out[36] m_io_out[37] m_io_out[3] m_io_out[4] m_io_out[5]
+ m_io_out[6] m_io_out[7] m_io_out[8] m_io_out[9] mgt_wb_ack_o mgt_wb_adr_i[0] mgt_wb_adr_i[10]
+ mgt_wb_adr_i[11] mgt_wb_adr_i[12] mgt_wb_adr_i[13] mgt_wb_adr_i[14] mgt_wb_adr_i[15]
+ mgt_wb_adr_i[16] mgt_wb_adr_i[17] mgt_wb_adr_i[18] mgt_wb_adr_i[19] mgt_wb_adr_i[1]
+ mgt_wb_adr_i[20] mgt_wb_adr_i[21] mgt_wb_adr_i[22] mgt_wb_adr_i[23] mgt_wb_adr_i[24]
+ mgt_wb_adr_i[25] mgt_wb_adr_i[26] mgt_wb_adr_i[27] mgt_wb_adr_i[28] mgt_wb_adr_i[29]
+ mgt_wb_adr_i[2] mgt_wb_adr_i[30] mgt_wb_adr_i[31] mgt_wb_adr_i[3] mgt_wb_adr_i[4]
+ mgt_wb_adr_i[5] mgt_wb_adr_i[6] mgt_wb_adr_i[7] mgt_wb_adr_i[8] mgt_wb_adr_i[9]
+ mgt_wb_clk_i mgt_wb_cyc_i mgt_wb_dat_i[0] mgt_wb_dat_i[10] mgt_wb_dat_i[11] mgt_wb_dat_i[12]
+ mgt_wb_dat_i[13] mgt_wb_dat_i[14] mgt_wb_dat_i[15] mgt_wb_dat_i[16] mgt_wb_dat_i[17]
+ mgt_wb_dat_i[18] mgt_wb_dat_i[19] mgt_wb_dat_i[1] mgt_wb_dat_i[20] mgt_wb_dat_i[21]
+ mgt_wb_dat_i[22] mgt_wb_dat_i[23] mgt_wb_dat_i[24] mgt_wb_dat_i[25] mgt_wb_dat_i[26]
+ mgt_wb_dat_i[27] mgt_wb_dat_i[28] mgt_wb_dat_i[29] mgt_wb_dat_i[2] mgt_wb_dat_i[30]
+ mgt_wb_dat_i[31] mgt_wb_dat_i[3] mgt_wb_dat_i[4] mgt_wb_dat_i[5] mgt_wb_dat_i[6]
+ mgt_wb_dat_i[7] mgt_wb_dat_i[8] mgt_wb_dat_i[9] mgt_wb_dat_o[0] mgt_wb_dat_o[10]
+ mgt_wb_dat_o[11] mgt_wb_dat_o[12] mgt_wb_dat_o[13] mgt_wb_dat_o[14] mgt_wb_dat_o[1]
+ mgt_wb_dat_o[20] mgt_wb_dat_o[21] mgt_wb_dat_o[22] mgt_wb_dat_o[23] mgt_wb_dat_o[24]
+ mgt_wb_dat_o[25] mgt_wb_dat_o[26] mgt_wb_dat_o[27] mgt_wb_dat_o[28] mgt_wb_dat_o[29]
+ mgt_wb_dat_o[2] mgt_wb_dat_o[30] mgt_wb_dat_o[31] mgt_wb_dat_o[6] mgt_wb_dat_o[7]
+ mgt_wb_dat_o[8] mgt_wb_dat_o[9] mgt_wb_rst_i mgt_wb_sel_i[0] mgt_wb_sel_i[1] mgt_wb_sel_i[2]
+ mgt_wb_sel_i[3] mgt_wb_stb_i mgt_wb_we_i user_clock2 vccd1 vssd1 la_data_out[39]
+ la_data_out[38] la_data_out[59] la_data_out[58] la_data_out[57] la_data_out[56]
+ m_io_out[35] la_data_out[55] m_io_out[34] mgt_wb_dat_o[19] mgt_wb_dat_o[18] m_io_out[33]
+ m_io_out[32] mgt_wb_dat_o[17] m_io_out[31] mgt_wb_dat_o[5] mgt_wb_dat_o[16] mgt_wb_dat_o[4]
+ mgt_wb_dat_o[15] m_io_out[30] mgt_wb_dat_o[3] m_io_oeb[27] irq[2] la_data_out[10]
+ la_data_out[21] irq[1] la_data_out[9] la_data_out[20] irq[0] la_data_out[8] la_data_out[29]
+ la_data_out[7] la_data_out[6] la_data_out[28] la_data_out[5] la_data_out[27] la_data_out[4]
+ la_data_out[15] la_data_out[26] la_data_out[3] la_data_out[14] la_data_out[25] la_data_out[13]
+ la_data_out[24] la_data_out[2] la_data_out[12] la_data_out[23]
X_3155_ m_arbiter.wb0_adr\[9\] sspi.req_addr\[9\] _1478_ _1483_ vccd1 vccd1 vssd1
+ vssd1 gf180mcu_fd_sc_mcu7t5v0__mux2_2
X_2106_ iram_wb_ack net53 _0733_ vccd1 vccd1 vssd1 vssd1 gf180mcu_fd_sc_mcu7t5v0__nand2_1
X_3086_ _1431_ _1432_ _1434_ vccd1 vccd1 vssd1 vssd1 gf180mcu_fd_sc_mcu7t5v0__and2_1
X_2037_ wb_compressor.wb_i_dat\[6\] wb_cross_clk.s_m_sync.s_data_ff\[8\] _0688_ _0689_
+ vccd1 vccd1 vssd1 vssd1 gf180mcu_fd_sc_mcu7t5v0__mux2_2
XFILLER_0_49_303 vccd1 vccd1 vssd1 vssd1 gf180mcu_fd_sc_mcu7t5v0__fillcap_16
XANTENNA__3050__S _1401_ vccd1 vccd1 vssd1 vssd1 gf180mcu_fd_sc_mcu7t5v0__antenna
XFILLER_0_43_92 vccd1 vccd1 vssd1 vssd1 gf180mcu_fd_sc_mcu7t5v0__fill_2
XFILLER_0_9_422 vccd1 vccd1 vssd1 vssd1 gf180mcu_fd_sc_mcu7t5v0__fill_2
XFILLER_0_9_477 vccd1 vccd1 vssd1 vssd1 gf180mcu_fd_sc_mcu7t5v0__fill_1
X_2939_ _1331_ _1333_ _1334_ vccd1 vccd1 vssd1 vssd1 gf180mcu_fd_sc_mcu7t5v0__nand2_1
XANTENNA__1757__A2 _0426_ vccd1 vccd1 vssd1 vssd1 gf180mcu_fd_sc_mcu7t5v0__antenna
XANTENNA_input73_I m_io_in[16] vccd1 vccd1 vssd1 vssd1 gf180mcu_fd_sc_mcu7t5v0__antenna
XFILLER_0_60_545 vccd1 vccd1 vssd1 vssd1 gf180mcu_fd_sc_mcu7t5v0__fill_2
XFILLER_0_5_661 vccd1 vccd1 vssd1 vssd1 gf180mcu_fd_sc_mcu7t5v0__fillcap_32
XTAP_TAPCELL_ROW_20_389 vccd1 vssd1 gf180mcu_fd_sc_mcu7t5v0__filltie
XFILLER_0_32_247 vccd1 vccd1 vssd1 vssd1 gf180mcu_fd_sc_mcu7t5v0__fillcap_4
XFILLER_0_4_171 vccd1 vccd1 vssd1 vssd1 gf180mcu_fd_sc_mcu7t5v0__fillcap_4
XANTENNA__2706__A1 _1073_ vccd1 vccd1 vssd1 vssd1 gf180mcu_fd_sc_mcu7t5v0__antenna
XFILLER_0_13_472 vccd1 vccd1 vssd1 vssd1 gf180mcu_fd_sc_mcu7t5v0__fill_1
XFILLER_0_7_92 vccd1 vccd1 vssd1 vssd1 gf180mcu_fd_sc_mcu7t5v0__fill_1
XTAP_TAPCELL_ROW_28_489 vccd1 vssd1 gf180mcu_fd_sc_mcu7t5v0__filltie
XFILLER_0_55_317 vccd1 vccd1 vssd1 vssd1 gf180mcu_fd_sc_mcu7t5v0__fillcap_16
XFILLER_0_55_306 vccd1 vccd1 vssd1 vssd1 gf180mcu_fd_sc_mcu7t5v0__fillcap_8
XANTENNA__3198__A1 net235 vccd1 vccd1 vssd1 vssd1 gf180mcu_fd_sc_mcu7t5v0__antenna
XANTENNA__1748__A2 _0448_ vccd1 vccd1 vssd1 vssd1 gf180mcu_fd_sc_mcu7t5v0__antenna
XANTENNA__2812__B _0763_ vccd1 vccd1 vssd1 vssd1 gf180mcu_fd_sc_mcu7t5v0__antenna
XFILLER_0_24_737 vccd1 vccd1 vssd1 vssd1 gf180mcu_fd_sc_mcu7t5v0__fill_2
XFILLER_0_2_119 vccd1 vccd1 vssd1 vssd1 gf180mcu_fd_sc_mcu7t5v0__fillcap_4
XFILLER_0_24_759 vccd1 vccd1 vssd1 vssd1 gf180mcu_fd_sc_mcu7t5v0__fill_2
XFILLER_0_51_578 vccd1 vccd1 vssd1 vssd1 gf180mcu_fd_sc_mcu7t5v0__fill_2
XANTENNA__1920__A2 net259 vccd1 vccd1 vssd1 vssd1 gf180mcu_fd_sc_mcu7t5v0__antenna
XANTENNA__3122__B2 sspi.res_data\[6\] vccd1 vccd1 vssd1 vssd1 gf180mcu_fd_sc_mcu7t5v0__antenna
XTAP_TAPCELL_ROW_47_721 vccd1 vssd1 gf180mcu_fd_sc_mcu7t5v0__filltie
XANTENNA__1684__A1 _0391_ vccd1 vccd1 vssd1 vssd1 gf180mcu_fd_sc_mcu7t5v0__antenna
XFILLER_0_58_122 vccd1 vccd1 vssd1 vssd1 gf180mcu_fd_sc_mcu7t5v0__fill_2
XFILLER_0_58_111 vccd1 vccd1 vssd1 vssd1 gf180mcu_fd_sc_mcu7t5v0__fill_2
XFILLER_0_59_667 vccd1 vccd1 vssd1 vssd1 gf180mcu_fd_sc_mcu7t5v0__fill_2
XFILLER_0_58_199 vccd1 vccd1 vssd1 vssd1 gf180mcu_fd_sc_mcu7t5v0__fill_2
XFILLER_0_6_414 vccd1 vccd1 vssd1 vssd1 gf180mcu_fd_sc_mcu7t5v0__fillcap_4
XFILLER_0_6_403 vccd1 vccd1 vssd1 vssd1 gf180mcu_fd_sc_mcu7t5v0__fillcap_4
X_3773_ net249 net160 vccd1 vccd1 vssd1 vssd1 gf180mcu_fd_sc_mcu7t5v0__clkbuf_1
XFILLER_0_6_469 vccd1 vccd1 vssd1 vssd1 gf180mcu_fd_sc_mcu7t5v0__fill_1
XFILLER_0_42_556 vccd1 vccd1 vssd1 vssd1 gf180mcu_fd_sc_mcu7t5v0__fill_2
XFILLER_0_14_247 vccd1 vccd1 vssd1 vssd1 gf180mcu_fd_sc_mcu7t5v0__fill_2
X_2724_ wb_cross_clk.m_s_sync.d_data\[34\] _1080_ _0555_ _1162_ vccd1 vccd1 vssd1
+ vssd1 gf180mcu_fd_sc_mcu7t5v0__oai21_1
XANTENNA_clkbuf_leaf_42_user_clock2_I clknet_2_2__leaf_user_clock2 vccd1 vccd1 vssd1
+ vssd1 gf180mcu_fd_sc_mcu7t5v0__antenna
XFILLER_0_30_707 vccd1 vccd1 vssd1 vssd1 gf180mcu_fd_sc_mcu7t5v0__fill_2
X_2655_ _0553_ _1102_ _0238_ vccd1 vccd1 vssd1 vssd1 gf180mcu_fd_sc_mcu7t5v0__nor2_1
X_1606_ _1527_ m_arbiter.wb0_o_dat\[6\] _1530_ vccd1 vccd1 vssd1 vssd1 gf180mcu_fd_sc_mcu7t5v0__or2_1
XFILLER_0_2_664 vccd1 vccd1 vssd1 vssd1 gf180mcu_fd_sc_mcu7t5v0__fill_1
X_2586_ wb_compressor.wb_i_dat\[10\] net78 net213 _1050_ vccd1 vccd1 vssd1 vssd1 gf180mcu_fd_sc_mcu7t5v0__mux2_2
XFILLER_0_10_486 vccd1 vccd1 vssd1 vssd1 gf180mcu_fd_sc_mcu7t5v0__fill_2
XANTENNA__1852__I net193 vccd1 vccd1 vssd1 vssd1 gf180mcu_fd_sc_mcu7t5v0__antenna
X_3207_ net186 _1509_ _1511_ vccd1 vccd1 vssd1 vssd1 gf180mcu_fd_sc_mcu7t5v0__nor2_1
XANTENNA__1675__A1 net128 vccd1 vccd1 vssd1 vssd1 gf180mcu_fd_sc_mcu7t5v0__antenna
X_3138_ m_arbiter.wb0_adr\[1\] sspi.req_addr\[1\] _1400_ _1474_ vccd1 vccd1 vssd1
+ vssd1 gf180mcu_fd_sc_mcu7t5v0__mux2_2
XANTENNA__3779__I net250 vccd1 vccd1 vssd1 vssd1 gf180mcu_fd_sc_mcu7t5v0__antenna
Xclkbuf_leaf_50_user_clock2 clknet_2_0__leaf_user_clock2 clknet_leaf_50_user_clock2
+ vccd1 vccd1 vssd1 vssd1 gf180mcu_fd_sc_mcu7t5v0__clkbuf_16
X_3069_ clk_div.cnt\[0\] clk_div.cnt\[1\] clk_div.cnt\[2\] _1422_ vccd1 vccd1 vssd1
+ vssd1 gf180mcu_fd_sc_mcu7t5v0__aoi21_1
XFILLER_0_49_166 vccd1 vccd1 vssd1 vssd1 gf180mcu_fd_sc_mcu7t5v0__fill_2
XTAP_TAPCELL_ROW_25_459 vccd1 vssd1 gf180mcu_fd_sc_mcu7t5v0__filltie
XFILLER_0_37_317 vccd1 vccd1 vssd1 vssd1 gf180mcu_fd_sc_mcu7t5v0__fill_2
XFILLER_0_64_158 vccd1 vccd1 vssd1 vssd1 gf180mcu_fd_sc_mcu7t5v0__fill_2
XFILLER_0_18_531 vccd1 vccd1 vssd1 vssd1 gf180mcu_fd_sc_mcu7t5v0__fill_2
XFILLER_0_61_810 vccd1 vccd1 vssd1 vssd1 gf180mcu_fd_sc_mcu7t5v0__fill_1
XFILLER_0_45_372 vccd1 vccd1 vssd1 vssd1 gf180mcu_fd_sc_mcu7t5v0__fill_1
XANTENNA__2927__A1 _0639_ vccd1 vccd1 vssd1 vssd1 gf180mcu_fd_sc_mcu7t5v0__antenna
XFILLER_0_60_331 vccd1 vccd1 vssd1 vssd1 gf180mcu_fd_sc_mcu7t5v0__fill_1
XFILLER_0_60_375 vccd1 vccd1 vssd1 vssd1 gf180mcu_fd_sc_mcu7t5v0__fill_2
XANTENNA__2079__B _0631_ vccd1 vccd1 vssd1 vssd1 gf180mcu_fd_sc_mcu7t5v0__antenna
XANTENNA__1711__B _0413_ vccd1 vccd1 vssd1 vssd1 gf180mcu_fd_sc_mcu7t5v0__antenna
XFILLER_0_56_637 vccd1 vccd1 vssd1 vssd1 gf180mcu_fd_sc_mcu7t5v0__fill_2
XFILLER_0_55_125 vccd1 vccd1 vssd1 vssd1 gf180mcu_fd_sc_mcu7t5v0__fill_2
XFILLER_0_55_103 vccd1 vccd1 vssd1 vssd1 gf180mcu_fd_sc_mcu7t5v0__fillcap_8
XANTENNA__2091__A1 iram_wb_ack vccd1 vccd1 vssd1 vssd1 gf180mcu_fd_sc_mcu7t5v0__antenna
XFILLER_0_50_16 vccd1 vccd1 vssd1 vssd1 gf180mcu_fd_sc_mcu7t5v0__fillcap_4
XFILLER_0_63_191 vccd1 vccd1 vssd1 vssd1 gf180mcu_fd_sc_mcu7t5v0__fill_1
XANTENNA__2034__S _0677_ vccd1 vccd1 vssd1 vssd1 gf180mcu_fd_sc_mcu7t5v0__antenna
XFILLER_0_52_843 vccd1 vccd1 vssd1 vssd1 gf180mcu_fd_sc_mcu7t5v0__fill_2
XFILLER_0_11_206 vccd1 vccd1 vssd1 vssd1 gf180mcu_fd_sc_mcu7t5v0__fill_2
XFILLER_0_24_556 vccd1 vccd1 vssd1 vssd1 gf180mcu_fd_sc_mcu7t5v0__fill_2
XFILLER_0_59_47 vccd1 vccd1 vssd1 vssd1 gf180mcu_fd_sc_mcu7t5v0__fillcap_16
XFILLER_0_11_239 vccd1 vccd1 vssd1 vssd1 gf180mcu_fd_sc_mcu7t5v0__fillcap_4
X_2440_ wb_cross_clk.m_s_sync.s_data_ff\[26\] _0937_ _0958_ vccd1 vccd1 vssd1 vssd1
+ gf180mcu_fd_sc_mcu7t5v0__nor2_1
XFILLER_0_59_69 vccd1 vccd1 vssd1 vssd1 gf180mcu_fd_sc_mcu7t5v0__fill_1