* NGSPICE file created from RAM32.ext - technology: sky130A

* Black-box entry subcircuit for sky130_fd_sc_hd__dlxtp_1 abstract view
.subckt sky130_fd_sc_hd__dlxtp_1 D GATE VGND VNB VPB VPWR Q
.ends

* Black-box entry subcircuit for sky130_fd_sc_hd__clkbuf_16 abstract view
.subckt sky130_fd_sc_hd__clkbuf_16 A VGND VNB VPB VPWR X
.ends

* Black-box entry subcircuit for sky130_fd_sc_hd__fill_2 abstract view
.subckt sky130_fd_sc_hd__fill_2 VGND VNB VPB VPWR
.ends

* Black-box entry subcircuit for sky130_fd_sc_hd__dlclkp_1 abstract view
.subckt sky130_fd_sc_hd__dlclkp_1 CLK GATE VGND VNB VPB VPWR GCLK
.ends

* Black-box entry subcircuit for sky130_fd_sc_hd__decap_3 abstract view
.subckt sky130_fd_sc_hd__decap_3 VGND VNB VPB VPWR
.ends

* Black-box entry subcircuit for sky130_fd_sc_hd__decap_6 abstract view
.subckt sky130_fd_sc_hd__decap_6 VGND VNB VPB VPWR
.ends

* Black-box entry subcircuit for sky130_fd_sc_hd__ebufn_2 abstract view
.subckt sky130_fd_sc_hd__ebufn_2 A TE_B VGND VNB VPB VPWR Z
.ends

* Black-box entry subcircuit for sky130_fd_sc_hd__fill_1 abstract view
.subckt sky130_fd_sc_hd__fill_1 VGND VNB VPB VPWR
.ends

* Black-box entry subcircuit for sky130_fd_sc_hd__decap_4 abstract view
.subckt sky130_fd_sc_hd__decap_4 VGND VNB VPB VPWR
.ends

* Black-box entry subcircuit for sky130_fd_sc_hd__inv_1 abstract view
.subckt sky130_fd_sc_hd__inv_1 A VGND VNB VPB VPWR Y
.ends

* Black-box entry subcircuit for sky130_fd_sc_hd__and2_1 abstract view
.subckt sky130_fd_sc_hd__and2_1 A B VGND VNB VPB VPWR X
.ends

* Black-box entry subcircuit for sky130_fd_sc_hd__tapvpwrvgnd_1 abstract view
.subckt sky130_fd_sc_hd__tapvpwrvgnd_1 VGND VPWR
.ends

* Black-box entry subcircuit for sky130_fd_sc_hd__decap_8 abstract view
.subckt sky130_fd_sc_hd__decap_8 VGND VNB VPB VPWR
.ends

* Black-box entry subcircuit for sky130_fd_sc_hd__clkbuf_2 abstract view
.subckt sky130_fd_sc_hd__clkbuf_2 A VGND VNB VPB VPWR X
.ends

* Black-box entry subcircuit for sky130_fd_sc_hd__dfxtp_1 abstract view
.subckt sky130_fd_sc_hd__dfxtp_1 CLK D VGND VNB VPB VPWR Q
.ends

* Black-box entry subcircuit for sky130_ef_sc_hd__decap_12 abstract view
.subckt sky130_ef_sc_hd__decap_12 VGND VNB VPB VPWR
.ends

* Black-box entry subcircuit for sky130_fd_sc_hd__clkbuf_4 abstract view
.subckt sky130_fd_sc_hd__clkbuf_4 A VGND VNB VPB VPWR X
.ends

* Black-box entry subcircuit for sky130_fd_sc_hd__and4bb_2 abstract view
.subckt sky130_fd_sc_hd__and4bb_2 A_N B_N C D VGND VNB VPB VPWR X
.ends

* Black-box entry subcircuit for sky130_fd_sc_hd__and4b_2 abstract view
.subckt sky130_fd_sc_hd__and4b_2 A_N B C D VGND VNB VPB VPWR X
.ends

* Black-box entry subcircuit for sky130_fd_sc_hd__and4_2 abstract view
.subckt sky130_fd_sc_hd__and4_2 A B C D VGND VNB VPB VPWR X
.ends

* Black-box entry subcircuit for sky130_fd_sc_hd__nor4b_2 abstract view
.subckt sky130_fd_sc_hd__nor4b_2 A B C D_N VGND VNB VPB VPWR Y
.ends

* Black-box entry subcircuit for sky130_fd_sc_hd__conb_1 abstract view
.subckt sky130_fd_sc_hd__conb_1 VGND VNB VPB VPWR HI LO
.ends

* Black-box entry subcircuit for sky130_fd_sc_hd__nor3b_2 abstract view
.subckt sky130_fd_sc_hd__nor3b_2 A B C_N VGND VNB VPB VPWR Y
.ends

* Black-box entry subcircuit for sky130_fd_sc_hd__and3b_2 abstract view
.subckt sky130_fd_sc_hd__and3b_2 A_N B C VGND VNB VPB VPWR X
.ends

* Black-box entry subcircuit for sky130_fd_sc_hd__and3_2 abstract view
.subckt sky130_fd_sc_hd__and3_2 A B C VGND VNB VPB VPWR X
.ends

.subckt RAM32 A0[0] A0[1] A0[2] A0[3] A0[4] CLK Di0[0] Di0[10] Di0[11] Di0[12] Di0[13]
+ Di0[14] Di0[15] Di0[16] Di0[17] Di0[18] Di0[19] Di0[1] Di0[20] Di0[21] Di0[22] Di0[23]
+ Di0[24] Di0[25] Di0[26] Di0[27] Di0[28] Di0[29] Di0[2] Di0[30] Di0[31] Di0[32] Di0[33]
+ Di0[34] Di0[35] Di0[36] Di0[37] Di0[38] Di0[39] Di0[3] Di0[40] Di0[41] Di0[42] Di0[43]
+ Di0[44] Di0[45] Di0[46] Di0[47] Di0[48] Di0[49] Di0[4] Di0[50] Di0[51] Di0[52] Di0[53]
+ Di0[54] Di0[55] Di0[56] Di0[57] Di0[58] Di0[59] Di0[5] Di0[60] Di0[61] Di0[62] Di0[63]
+ Di0[6] Di0[7] Di0[8] Di0[9] Do0[0] Do0[10] Do0[11] Do0[12] Do0[13] Do0[14] Do0[15]
+ Do0[16] Do0[17] Do0[18] Do0[19] Do0[1] Do0[20] Do0[21] Do0[22] Do0[23] Do0[24] Do0[25]
+ Do0[26] Do0[27] Do0[28] Do0[29] Do0[2] Do0[30] Do0[31] Do0[32] Do0[33] Do0[34] Do0[35]
+ Do0[36] Do0[37] Do0[38] Do0[39] Do0[3] Do0[40] Do0[41] Do0[42] Do0[43] Do0[44] Do0[45]
+ Do0[46] Do0[47] Do0[48] Do0[49] Do0[4] Do0[50] Do0[51] Do0[52] Do0[53] Do0[54] Do0[55]
+ Do0[56] Do0[57] Do0[58] Do0[59] Do0[5] Do0[60] Do0[61] Do0[62] Do0[63] Do0[6] Do0[7]
+ Do0[8] Do0[9] EN0 VGND VPWR WE0[0] WE0[1] WE0[2] WE0[3] WE0[4] WE0[5] WE0[6] WE0[7]
XSLICE\[2\].RAM8.WORD\[1\].W.BYTE\[3\].B.BIT\[7\].genblk1.STORAGE DIBUF\[31\].X clknet_1_1__leaf_SLICE\[2\].RAM8.WORD\[1\].W.BYTE\[3\].B.GCLK
+ VGND VGND VPWR VPWR SLICE\[2\].RAM8.WORD\[1\].W.BYTE\[3\].B.Q_WIRE\[7\] sky130_fd_sc_hd__dlxtp_1
Xclkbuf_1_1__f_SLICE\[2\].RAM8.WORD\[0\].W.BYTE\[3\].B.GCLK clknet_0_SLICE\[2\].RAM8.WORD\[0\].W.BYTE\[3\].B.GCLK
+ VGND VGND VPWR VPWR clknet_1_1__leaf_SLICE\[2\].RAM8.WORD\[0\].W.BYTE\[3\].B.GCLK
+ sky130_fd_sc_hd__clkbuf_16
XSLICE\[2\].RAM8.WORD\[7\].W.BYTE\[2\].B.BIT\[6\].genblk1.STORAGE DIBUF\[22\].X clknet_1_1__leaf_SLICE\[2\].RAM8.WORD\[7\].W.BYTE\[2\].B.GCLK
+ VGND VGND VPWR VPWR SLICE\[2\].RAM8.WORD\[7\].W.BYTE\[2\].B.Q_WIRE\[6\] sky130_fd_sc_hd__dlxtp_1
XFILLER_100_138 VGND VGND VPWR VPWR sky130_fd_sc_hd__fill_2
XFILLER_39_222 VGND VGND VPWR VPWR sky130_fd_sc_hd__fill_2
XSLICE\[1\].RAM8.WORD\[1\].W.BYTE\[7\].B.genblk1.CG net80 SLICE\[1\].RAM8.WORD\[1\].W.BYTE\[7\].B.WE0_WIRE
+ VGND VGND VPWR VPWR SLICE\[1\].RAM8.WORD\[1\].W.BYTE\[7\].B.GCLK sky130_fd_sc_hd__dlclkp_1
XFILLER_94_361 VGND VGND VPWR VPWR sky130_fd_sc_hd__decap_3
Xclkbuf_1_0__f_SLICE\[1\].RAM8.WORD\[3\].W.BYTE\[6\].B.GCLK clknet_0_SLICE\[1\].RAM8.WORD\[3\].W.BYTE\[6\].B.GCLK
+ VGND VGND VPWR VPWR clknet_1_0__leaf_SLICE\[1\].RAM8.WORD\[3\].W.BYTE\[6\].B.GCLK
+ sky130_fd_sc_hd__clkbuf_16
XFILLER_67_575 VGND VGND VPWR VPWR sky130_fd_sc_hd__decap_6
XSLICE\[2\].RAM8.WORD\[7\].W.BYTE\[2\].B.BIT\[4\].OBUF0 SLICE\[2\].RAM8.WORD\[7\].W.BYTE\[2\].B.Q_WIRE\[4\]
+ SLICE\[2\].RAM8.WORD\[7\].W.BYTE\[2\].B.SEL0_B VGND VGND VPWR VPWR BYTE\[2\].FLOATBUF0\[20\].Z
+ sky130_fd_sc_hd__ebufn_2
XFILLER_82_545 VGND VGND VPWR VPWR sky130_fd_sc_hd__fill_1
XFILLER_55_759 VGND VGND VPWR VPWR sky130_fd_sc_hd__decap_4
XFILLER_27_428 VGND VGND VPWR VPWR sky130_fd_sc_hd__decap_4
XSLICE\[1\].RAM8.WORD\[2\].W.BYTE\[5\].B.BIT\[3\].genblk1.STORAGE DIBUF\[43\].X clknet_1_0__leaf_SLICE\[1\].RAM8.WORD\[2\].W.BYTE\[5\].B.GCLK
+ VGND VGND VPWR VPWR SLICE\[1\].RAM8.WORD\[2\].W.BYTE\[5\].B.Q_WIRE\[3\] sky130_fd_sc_hd__dlxtp_1
XFILLER_39_299 VGND VGND VPWR VPWR sky130_fd_sc_hd__decap_4
XSLICE\[1\].RAM8.WORD\[2\].W.BYTE\[0\].B.genblk1.CLKINV_81 SLICE\[1\].RAM8.WORD\[2\].W.BYTE\[0\].B.CLK
+ VGND VGND VPWR VPWR net81 sky130_fd_sc_hd__inv_1
XSLICE\[2\].RAM8.WORD\[5\].W.BYTE\[0\].B.BIT\[5\].genblk1.STORAGE DIBUF\[5\].X clknet_1_0__leaf_SLICE\[2\].RAM8.WORD\[5\].W.BYTE\[0\].B.GCLK
+ VGND VGND VPWR VPWR SLICE\[2\].RAM8.WORD\[5\].W.BYTE\[0\].B.Q_WIRE\[5\] sky130_fd_sc_hd__dlxtp_1
XFILLER_82_589 VGND VGND VPWR VPWR sky130_fd_sc_hd__fill_2
Xclkbuf_1_0__f_SLICE\[1\].RAM8.WORD\[6\].W.BYTE\[1\].B.GCLK clknet_0_SLICE\[1\].RAM8.WORD\[6\].W.BYTE\[1\].B.GCLK
+ VGND VGND VPWR VPWR clknet_1_0__leaf_SLICE\[1\].RAM8.WORD\[6\].W.BYTE\[1\].B.GCLK
+ sky130_fd_sc_hd__clkbuf_16
XSLICE\[1\].RAM8.WORD\[6\].W.BYTE\[2\].B.BIT\[1\].genblk1.STORAGE DIBUF\[17\].X clknet_1_0__leaf_SLICE\[1\].RAM8.WORD\[6\].W.BYTE\[2\].B.GCLK
+ VGND VGND VPWR VPWR SLICE\[1\].RAM8.WORD\[6\].W.BYTE\[2\].B.Q_WIRE\[1\] sky130_fd_sc_hd__dlxtp_1
XFILLER_62_291 VGND VGND VPWR VPWR sky130_fd_sc_hd__decap_6
XFILLER_52_29 VGND VGND VPWR VPWR sky130_fd_sc_hd__decap_3
XFILLER_22_122 VGND VGND VPWR VPWR sky130_fd_sc_hd__decap_4
XSLICE\[1\].RAM8.WORD\[0\].W.BYTE\[3\].B.BIT\[2\].genblk1.STORAGE DIBUF\[26\].X clknet_1_0__leaf_SLICE\[1\].RAM8.WORD\[0\].W.BYTE\[3\].B.GCLK
+ VGND VGND VPWR VPWR SLICE\[1\].RAM8.WORD\[0\].W.BYTE\[3\].B.Q_WIRE\[2\] sky130_fd_sc_hd__dlxtp_1
XFILLER_10_306 VGND VGND VPWR VPWR sky130_fd_sc_hd__fill_2
XSLICE\[2\].RAM8.WORD\[1\].W.BYTE\[7\].B.BIT\[4\].OBUF0 SLICE\[2\].RAM8.WORD\[1\].W.BYTE\[7\].B.Q_WIRE\[4\]
+ SLICE\[2\].RAM8.WORD\[1\].W.BYTE\[7\].B.SEL0_B VGND VGND VPWR VPWR BYTE\[7\].FLOATBUF0\[60\].Z
+ sky130_fd_sc_hd__ebufn_2
XDIBUF\[44\].__cell__ Di0[44] VGND VGND VPWR VPWR DIBUF\[44\].X sky130_fd_sc_hd__clkbuf_16
XSLICE\[0\].RAM8.WORD\[6\].W.BYTE\[6\].B.CGAND SLICE\[0\].RAM8.WORD\[6\].W.BYTE\[0\].B.SEL0
+ SLICE\[0\].RAM8.WEBUF\[6\].X VGND VGND VPWR VPWR SLICE\[0\].RAM8.WORD\[6\].W.BYTE\[6\].B.WE0_WIRE
+ sky130_fd_sc_hd__and2_1
Xclkbuf_0_SLICE\[0\].RAM8.WORD\[7\].W.BYTE\[7\].B.GCLK SLICE\[0\].RAM8.WORD\[7\].W.BYTE\[7\].B.GCLK
+ VGND VGND VPWR VPWR clknet_0_SLICE\[0\].RAM8.WORD\[7\].W.BYTE\[7\].B.GCLK sky130_fd_sc_hd__clkbuf_16
XSLICE\[1\].RAM8.WORD\[4\].W.BYTE\[0\].B.BIT\[0\].genblk1.STORAGE DIBUF\[0\].X clknet_1_0__leaf_SLICE\[1\].RAM8.WORD\[4\].W.BYTE\[0\].B.GCLK
+ VGND VGND VPWR VPWR SLICE\[1\].RAM8.WORD\[4\].W.BYTE\[0\].B.Q_WIRE\[0\] sky130_fd_sc_hd__dlxtp_1
XFILLER_132_753 VGND VGND VPWR VPWR sky130_fd_sc_hd__decap_3
XFILLER_117_66 VGND VGND VPWR VPWR sky130_fd_sc_hd__decap_4
XFILLER_77_15 VGND VGND VPWR VPWR sky130_fd_sc_hd__decap_4
XSLICE\[1\].RAM8.WORD\[2\].W.BYTE\[1\].B.BIT\[3\].OBUF0 SLICE\[1\].RAM8.WORD\[2\].W.BYTE\[1\].B.Q_WIRE\[3\]
+ SLICE\[1\].RAM8.WORD\[2\].W.BYTE\[1\].B.SEL0_B VGND VGND VPWR VPWR BYTE\[1\].FLOATBUF0\[11\].Z
+ sky130_fd_sc_hd__ebufn_2
XSLICE\[0\].RAM8.WORD\[6\].W.BYTE\[6\].B.genblk1.CLKINV_55 SLICE\[0\].RAM8.WORD\[6\].W.BYTE\[0\].B.CLK
+ VGND VGND VPWR VPWR net55 sky130_fd_sc_hd__inv_1
XFILLER_104_477 VGND VGND VPWR VPWR sky130_fd_sc_hd__fill_2
XFILLER_104_466 VGND VGND VPWR VPWR sky130_fd_sc_hd__decap_4
XFILLER_92_309 VGND VGND VPWR VPWR sky130_fd_sc_hd__fill_2
XFILLER_73_501 VGND VGND VPWR VPWR sky130_fd_sc_hd__decap_3
XFILLER_46_715 VGND VGND VPWR VPWR sky130_fd_sc_hd__decap_4
XSLICE\[1\].RAM8.WORD\[6\].W.BYTE\[4\].B.BIT\[6\].OBUF0 SLICE\[1\].RAM8.WORD\[6\].W.BYTE\[4\].B.Q_WIRE\[6\]
+ SLICE\[1\].RAM8.WORD\[6\].W.BYTE\[4\].B.SEL0_B VGND VGND VPWR VPWR BYTE\[4\].FLOATBUF0\[38\].Z
+ sky130_fd_sc_hd__ebufn_2
XSLICE\[0\].RAM8.WORD\[4\].W.BYTE\[6\].B.BIT\[0\].OBUF0 SLICE\[0\].RAM8.WORD\[4\].W.BYTE\[6\].B.Q_WIRE\[0\]
+ SLICE\[0\].RAM8.WORD\[4\].W.BYTE\[6\].B.SEL0_B VGND VGND VPWR VPWR BYTE\[6\].FLOATBUF0\[48\].Z
+ sky130_fd_sc_hd__ebufn_2
XFILLER_45_225 VGND VGND VPWR VPWR sky130_fd_sc_hd__decap_4
XTAP_1800 VGND VPWR sky130_fd_sc_hd__tapvpwrvgnd_1
XTAP_1833 VGND VPWR sky130_fd_sc_hd__tapvpwrvgnd_1
XTAP_1822 VGND VPWR sky130_fd_sc_hd__tapvpwrvgnd_1
XTAP_1811 VGND VPWR sky130_fd_sc_hd__tapvpwrvgnd_1
XFILLER_61_729 VGND VGND VPWR VPWR sky130_fd_sc_hd__fill_2
XFILLER_54_781 VGND VGND VPWR VPWR sky130_fd_sc_hd__decap_4
XTAP_1855 VGND VPWR sky130_fd_sc_hd__tapvpwrvgnd_1
XTAP_1866 VGND VPWR sky130_fd_sc_hd__tapvpwrvgnd_1
XTAP_1844 VGND VPWR sky130_fd_sc_hd__tapvpwrvgnd_1
Xclkbuf_0_SLICE\[3\].RAM8.WORD\[6\].W.BYTE\[7\].B.GCLK SLICE\[3\].RAM8.WORD\[6\].W.BYTE\[7\].B.GCLK
+ VGND VGND VPWR VPWR clknet_0_SLICE\[3\].RAM8.WORD\[6\].W.BYTE\[7\].B.GCLK sky130_fd_sc_hd__clkbuf_16
XFILLER_13_133 VGND VGND VPWR VPWR sky130_fd_sc_hd__decap_4
XFILLER_14_645 VGND VGND VPWR VPWR sky130_fd_sc_hd__decap_8
XSLICE\[2\].RAM8.WEBUF\[5\].__cell__ SLICE\[0\].RAM8.WEBUF\[5\].A VGND VGND VPWR VPWR
+ SLICE\[2\].RAM8.WEBUF\[5\].X sky130_fd_sc_hd__clkbuf_2
XFILLER_26_85 VGND VGND VPWR VPWR sky130_fd_sc_hd__decap_3
XTAP_1899 VGND VPWR sky130_fd_sc_hd__tapvpwrvgnd_1
XTAP_1888 VGND VPWR sky130_fd_sc_hd__tapvpwrvgnd_1
XTAP_1877 VGND VPWR sky130_fd_sc_hd__tapvpwrvgnd_1
XFILLER_14_678 VGND VGND VPWR VPWR sky130_fd_sc_hd__decap_4
XSLICE\[3\].RAM8.WORD\[5\].W.BYTE\[6\].B.BIT\[2\].OBUF0 SLICE\[3\].RAM8.WORD\[5\].W.BYTE\[6\].B.Q_WIRE\[2\]
+ SLICE\[3\].RAM8.WORD\[5\].W.BYTE\[6\].B.SEL0_B VGND VGND VPWR VPWR BYTE\[6\].FLOATBUF0\[50\].Z
+ sky130_fd_sc_hd__ebufn_2
XSLICE\[0\].RAM8.WORD\[3\].W.BYTE\[2\].B.BIT\[7\].genblk1.STORAGE DIBUF\[23\].X clknet_1_0__leaf_SLICE\[0\].RAM8.WORD\[3\].W.BYTE\[2\].B.GCLK
+ VGND VGND VPWR VPWR SLICE\[0\].RAM8.WORD\[3\].W.BYTE\[2\].B.Q_WIRE\[7\] sky130_fd_sc_hd__dlxtp_1
Xclkbuf_1_1__f_SLICE\[2\].RAM8.WORD\[2\].W.BYTE\[3\].B.GCLK clknet_0_SLICE\[2\].RAM8.WORD\[2\].W.BYTE\[3\].B.GCLK
+ VGND VGND VPWR VPWR clknet_1_1__leaf_SLICE\[2\].RAM8.WORD\[2\].W.BYTE\[3\].B.GCLK
+ sky130_fd_sc_hd__clkbuf_16
XFILLER_54_9 VGND VGND VPWR VPWR sky130_fd_sc_hd__fill_1
XFILLER_5_332 VGND VGND VPWR VPWR sky130_fd_sc_hd__decap_4
XSLICE\[0\].RAM8.WORD\[1\].W.BYTE\[3\].B.BIT\[5\].OBUF0 SLICE\[0\].RAM8.WORD\[1\].W.BYTE\[3\].B.Q_WIRE\[5\]
+ SLICE\[0\].RAM8.WORD\[1\].W.BYTE\[3\].B.SEL0_B VGND VGND VPWR VPWR BYTE\[3\].FLOATBUF0\[29\].Z
+ sky130_fd_sc_hd__ebufn_2
Xclkbuf_1_0__f_SLICE\[1\].RAM8.WORD\[5\].W.BYTE\[6\].B.GCLK clknet_0_SLICE\[1\].RAM8.WORD\[5\].W.BYTE\[6\].B.GCLK
+ VGND VGND VPWR VPWR clknet_1_0__leaf_SLICE\[1\].RAM8.WORD\[5\].W.BYTE\[6\].B.GCLK
+ sky130_fd_sc_hd__clkbuf_16
XFILLER_5_376 VGND VGND VPWR VPWR sky130_fd_sc_hd__decap_4
XSLICE\[2\].RAM8.WORD\[6\].W.BYTE\[0\].B.BIT\[1\].OBUF0 SLICE\[2\].RAM8.WORD\[6\].W.BYTE\[0\].B.Q_WIRE\[1\]
+ SLICE\[2\].RAM8.WORD\[6\].W.BYTE\[0\].B.SEL0_B VGND VGND VPWR VPWR BYTE\[0\].FLOATBUF0\[1\].Z
+ sky130_fd_sc_hd__ebufn_2
XFILLER_123_753 VGND VGND VPWR VPWR sky130_fd_sc_hd__decap_6
XSLICE\[0\].RAM8.WORD\[1\].W.BYTE\[0\].B.BIT\[6\].genblk1.STORAGE DIBUF\[6\].X clknet_1_1__leaf_SLICE\[0\].RAM8.WORD\[1\].W.BYTE\[0\].B.GCLK
+ VGND VGND VPWR VPWR SLICE\[0\].RAM8.WORD\[1\].W.BYTE\[0\].B.Q_WIRE\[6\] sky130_fd_sc_hd__dlxtp_1
XFILLER_68_306 VGND VGND VPWR VPWR sky130_fd_sc_hd__fill_2
XFILLER_122_296 VGND VGND VPWR VPWR sky130_fd_sc_hd__decap_6
XFILLER_95_125 VGND VGND VPWR VPWR sky130_fd_sc_hd__decap_4
XFILLER_95_169 VGND VGND VPWR VPWR sky130_fd_sc_hd__decap_4
XFILLER_49_575 VGND VGND VPWR VPWR sky130_fd_sc_hd__decap_6
XSLICE\[3\].RAM8.WORD\[2\].W.BYTE\[3\].B.BIT\[7\].OBUF0 SLICE\[3\].RAM8.WORD\[2\].W.BYTE\[3\].B.Q_WIRE\[7\]
+ SLICE\[3\].RAM8.WORD\[2\].W.BYTE\[3\].B.SEL0_B VGND VGND VPWR VPWR BYTE\[3\].FLOATBUF0\[31\].Z
+ sky130_fd_sc_hd__ebufn_2
XFILLER_76_383 VGND VGND VPWR VPWR sky130_fd_sc_hd__fill_1
XSLICE\[2\].RAM8.WORD\[0\].W.BYTE\[5\].B.BIT\[1\].OBUF0 SLICE\[2\].RAM8.WORD\[0\].W.BYTE\[5\].B.Q_WIRE\[1\]
+ SLICE\[2\].RAM8.WORD\[0\].W.BYTE\[5\].B.SEL0_B VGND VGND VPWR VPWR BYTE\[5\].FLOATBUF0\[41\].Z
+ sky130_fd_sc_hd__ebufn_2
XFILLER_37_726 VGND VGND VPWR VPWR sky130_fd_sc_hd__fill_2
XFILLER_36_258 VGND VGND VPWR VPWR sky130_fd_sc_hd__decap_4
XSLICE\[3\].RAM8.WORD\[3\].W.BYTE\[7\].B.BIT\[3\].genblk1.STORAGE DIBUF\[59\].X clknet_1_0__leaf_SLICE\[3\].RAM8.WORD\[3\].W.BYTE\[7\].B.GCLK
+ VGND VGND VPWR VPWR SLICE\[3\].RAM8.WORD\[3\].W.BYTE\[7\].B.Q_WIRE\[3\] sky130_fd_sc_hd__dlxtp_1
XFILLER_64_589 VGND VGND VPWR VPWR sky130_fd_sc_hd__decap_6
XFILLER_45_781 VGND VGND VPWR VPWR sky130_fd_sc_hd__decap_3
XFILLER_44_280 VGND VGND VPWR VPWR sky130_fd_sc_hd__decap_6
XSLICE\[3\].RAM8.WORD\[7\].W.BYTE\[4\].B.BIT\[1\].genblk1.STORAGE DIBUF\[33\].X clknet_1_1__leaf_SLICE\[3\].RAM8.WORD\[7\].W.BYTE\[4\].B.GCLK
+ VGND VGND VPWR VPWR SLICE\[3\].RAM8.WORD\[7\].W.BYTE\[4\].B.Q_WIRE\[1\] sky130_fd_sc_hd__dlxtp_1
XSLICE\[3\].RAM8.WORD\[1\].W.BYTE\[5\].B.BIT\[2\].genblk1.STORAGE DIBUF\[42\].X clknet_1_1__leaf_SLICE\[3\].RAM8.WORD\[1\].W.BYTE\[5\].B.GCLK
+ VGND VGND VPWR VPWR SLICE\[3\].RAM8.WORD\[1\].W.BYTE\[5\].B.Q_WIRE\[2\] sky130_fd_sc_hd__dlxtp_1
XSLICE\[0\].RAM8.WORD\[3\].W.BYTE\[2\].B.genblk1.CG net27 SLICE\[0\].RAM8.WORD\[3\].W.BYTE\[2\].B.WE0_WIRE
+ VGND VGND VPWR VPWR SLICE\[0\].RAM8.WORD\[3\].W.BYTE\[2\].B.GCLK sky130_fd_sc_hd__dlclkp_1
XFILLER_9_660 VGND VGND VPWR VPWR sky130_fd_sc_hd__fill_1
XFILLER_118_547 VGND VGND VPWR VPWR sky130_fd_sc_hd__decap_4
XFILLER_8_181 VGND VGND VPWR VPWR sky130_fd_sc_hd__decap_4
XFILLER_133_517 VGND VGND VPWR VPWR sky130_fd_sc_hd__decap_4
XSLICE\[3\].RAM8.WORD\[5\].W.BYTE\[2\].B.BIT\[0\].genblk1.STORAGE DIBUF\[16\].X clknet_1_0__leaf_SLICE\[3\].RAM8.WORD\[5\].W.BYTE\[2\].B.GCLK
+ VGND VGND VPWR VPWR SLICE\[3\].RAM8.WORD\[5\].W.BYTE\[2\].B.Q_WIRE\[0\] sky130_fd_sc_hd__dlxtp_1
XSLICE\[1\].RAM8.WORD\[5\].W.BYTE\[2\].B.BIT\[3\].OBUF0 SLICE\[1\].RAM8.WORD\[5\].W.BYTE\[2\].B.Q_WIRE\[3\]
+ SLICE\[1\].RAM8.WORD\[5\].W.BYTE\[2\].B.SEL0_B VGND VGND VPWR VPWR BYTE\[2\].FLOATBUF0\[19\].Z
+ sky130_fd_sc_hd__ebufn_2
XFILLER_86_125 VGND VGND VPWR VPWR sky130_fd_sc_hd__fill_1
XSLICE\[0\].RAM8.WORD\[7\].W.BYTE\[7\].B.BIT\[0\].OBUF0 SLICE\[0\].RAM8.WORD\[7\].W.BYTE\[7\].B.Q_WIRE\[0\]
+ SLICE\[0\].RAM8.WORD\[7\].W.BYTE\[7\].B.SEL0_B VGND VGND VPWR VPWR BYTE\[7\].FLOATBUF0\[56\].Z
+ sky130_fd_sc_hd__ebufn_2
XFILLER_74_309 VGND VGND VPWR VPWR sky130_fd_sc_hd__decap_4
XSLICE\[2\].RAM8.WORD\[5\].W.BYTE\[6\].B.SEL0INV SLICE\[2\].RAM8.WORD\[5\].W.BYTE\[0\].B.SEL0
+ VGND VGND VPWR VPWR SLICE\[2\].RAM8.WORD\[5\].W.BYTE\[6\].B.SEL0_B sky130_fd_sc_hd__inv_1
XFILLER_28_715 VGND VGND VPWR VPWR sky130_fd_sc_hd__decap_4
XSLICE\[0\].RAM8.WORD\[5\].W.BYTE\[1\].B.SEL0INV SLICE\[0\].RAM8.WORD\[5\].W.BYTE\[0\].B.SEL0
+ VGND VGND VPWR VPWR SLICE\[0\].RAM8.WORD\[5\].W.BYTE\[1\].B.SEL0_B sky130_fd_sc_hd__inv_1
XFILLER_27_225 VGND VGND VPWR VPWR sky130_fd_sc_hd__fill_2
XFILLER_103_57 VGND VGND VPWR VPWR sky130_fd_sc_hd__fill_2
XFILLER_63_28 VGND VGND VPWR VPWR sky130_fd_sc_hd__decap_4
XTAP_1118 VGND VPWR sky130_fd_sc_hd__tapvpwrvgnd_1
XTAP_1129 VGND VPWR sky130_fd_sc_hd__tapvpwrvgnd_1
XTAP_1107 VGND VPWR sky130_fd_sc_hd__tapvpwrvgnd_1
XFILLER_36_781 VGND VGND VPWR VPWR sky130_fd_sc_hd__decap_4
XFILLER_43_729 VGND VGND VPWR VPWR sky130_fd_sc_hd__fill_2
XDo0_REG.OUTREG_BYTE\[7\].Do_FF\[2\] Do0_REG.CLKBUF\[7\] BYTE\[7\].FLOATBUF0\[58\].Z
+ VGND VGND VPWR VPWR Do0[58] sky130_fd_sc_hd__dfxtp_1
Xclkbuf_1_1__f_SLICE\[2\].RAM8.WORD\[4\].W.BYTE\[3\].B.GCLK clknet_0_SLICE\[2\].RAM8.WORD\[4\].W.BYTE\[3\].B.GCLK
+ VGND VGND VPWR VPWR clknet_1_1__leaf_SLICE\[2\].RAM8.WORD\[4\].W.BYTE\[3\].B.GCLK
+ sky130_fd_sc_hd__clkbuf_16
XFILLER_23_431 VGND VGND VPWR VPWR sky130_fd_sc_hd__decap_6
XSLICE\[1\].RAM8.WORD\[4\].W.BYTE\[6\].B.genblk1.CLKINV_103 SLICE\[1\].RAM8.WORD\[4\].W.BYTE\[0\].B.CLK
+ VGND VGND VPWR VPWR net103 sky130_fd_sc_hd__inv_1
XSLICE\[0\].RAM8.WORD\[0\].W.BYTE\[1\].B.BIT\[2\].OBUF0 SLICE\[0\].RAM8.WORD\[0\].W.BYTE\[1\].B.Q_WIRE\[2\]
+ SLICE\[0\].RAM8.WORD\[0\].W.BYTE\[1\].B.SEL0_B VGND VGND VPWR VPWR BYTE\[1\].FLOATBUF0\[10\].Z
+ sky130_fd_sc_hd__ebufn_2
XFILLER_50_250 VGND VGND VPWR VPWR sky130_fd_sc_hd__fill_2
Xclkbuf_1_0__f_SLICE\[1\].RAM8.WORD\[7\].W.BYTE\[6\].B.GCLK clknet_0_SLICE\[1\].RAM8.WORD\[7\].W.BYTE\[6\].B.GCLK
+ VGND VGND VPWR VPWR clknet_1_0__leaf_SLICE\[1\].RAM8.WORD\[7\].W.BYTE\[6\].B.GCLK
+ sky130_fd_sc_hd__clkbuf_16
XFILLER_50_283 VGND VGND VPWR VPWR sky130_fd_sc_hd__fill_1
XFILLER_10_125 VGND VGND VPWR VPWR sky130_fd_sc_hd__decap_4
XSLICE\[2\].RAM8.WORD\[4\].W.BYTE\[4\].B.BIT\[7\].genblk1.STORAGE DIBUF\[39\].X clknet_1_1__leaf_SLICE\[2\].RAM8.WORD\[4\].W.BYTE\[4\].B.GCLK
+ VGND VGND VPWR VPWR SLICE\[2\].RAM8.WORD\[4\].W.BYTE\[4\].B.Q_WIRE\[7\] sky130_fd_sc_hd__dlxtp_1
XFILLER_109_558 VGND VGND VPWR VPWR sky130_fd_sc_hd__fill_2
XSLICE\[0\].RAM8.WORD\[4\].W.BYTE\[4\].B.BIT\[5\].OBUF0 SLICE\[0\].RAM8.WORD\[4\].W.BYTE\[4\].B.Q_WIRE\[5\]
+ SLICE\[0\].RAM8.WORD\[4\].W.BYTE\[4\].B.SEL0_B VGND VGND VPWR VPWR BYTE\[4\].FLOATBUF0\[37\].Z
+ sky130_fd_sc_hd__ebufn_2
XSLICE\[1\].RAM8.WORD\[7\].W.BYTE\[5\].B.CGAND SLICE\[1\].RAM8.WORD\[7\].W.BYTE\[0\].B.SEL0
+ SLICE\[1\].RAM8.WEBUF\[5\].X VGND VGND VPWR VPWR SLICE\[1\].RAM8.WORD\[7\].W.BYTE\[5\].B.WE0_WIRE
+ sky130_fd_sc_hd__and2_1
XFILLER_128_65 VGND VGND VPWR VPWR sky130_ef_sc_hd__decap_12
XSLICE\[2\].RAM8.WORD\[6\].W.BYTE\[7\].B.genblk1.CG net184 SLICE\[2\].RAM8.WORD\[6\].W.BYTE\[7\].B.WE0_WIRE
+ VGND VGND VPWR VPWR SLICE\[2\].RAM8.WORD\[6\].W.BYTE\[7\].B.GCLK sky130_fd_sc_hd__dlclkp_1
XSLICE\[3\].RAM8.WORD\[1\].W.BYTE\[1\].B.BIT\[4\].OBUF0 SLICE\[3\].RAM8.WORD\[1\].W.BYTE\[1\].B.Q_WIRE\[4\]
+ SLICE\[3\].RAM8.WORD\[1\].W.BYTE\[1\].B.SEL0_B VGND VGND VPWR VPWR BYTE\[1\].FLOATBUF0\[12\].Z
+ sky130_fd_sc_hd__ebufn_2
XFILLER_117_591 VGND VGND VPWR VPWR sky130_fd_sc_hd__decap_4
XSLICE\[1\].RAM8.WORD\[5\].W.BYTE\[6\].B.BIT\[3\].genblk1.STORAGE DIBUF\[51\].X clknet_1_1__leaf_SLICE\[1\].RAM8.WORD\[5\].W.BYTE\[6\].B.GCLK
+ VGND VGND VPWR VPWR SLICE\[1\].RAM8.WORD\[5\].W.BYTE\[6\].B.Q_WIRE\[3\] sky130_fd_sc_hd__dlxtp_1
XFILLER_2_357 VGND VGND VPWR VPWR sky130_fd_sc_hd__decap_6
XFILLER_120_712 VGND VGND VPWR VPWR sky130_fd_sc_hd__decap_4
XFILLER_120_701 VGND VGND VPWR VPWR sky130_fd_sc_hd__fill_2
XSLICE\[2\].RAM8.WORD\[2\].W.BYTE\[2\].B.BIT\[6\].genblk1.STORAGE DIBUF\[22\].X clknet_1_1__leaf_SLICE\[2\].RAM8.WORD\[2\].W.BYTE\[2\].B.GCLK
+ VGND VGND VPWR VPWR SLICE\[2\].RAM8.WORD\[2\].W.BYTE\[2\].B.Q_WIRE\[6\] sky130_fd_sc_hd__dlxtp_1
XFILLER_104_274 VGND VGND VPWR VPWR sky130_fd_sc_hd__decap_4
XFILLER_78_659 VGND VGND VPWR VPWR sky130_fd_sc_hd__decap_4
XSLICE\[1\].RAM8.WORD\[1\].W.BYTE\[5\].B.SEL0INV SLICE\[1\].RAM8.WORD\[1\].W.BYTE\[0\].B.SEL0
+ VGND VGND VPWR VPWR SLICE\[1\].RAM8.WORD\[1\].W.BYTE\[5\].B.SEL0_B sky130_fd_sc_hd__inv_1
XFILLER_120_789 VGND VGND VPWR VPWR sky130_fd_sc_hd__fill_2
XSLICE\[2\].RAM8.WORD\[3\].W.BYTE\[6\].B.BIT\[1\].OBUF0 SLICE\[2\].RAM8.WORD\[3\].W.BYTE\[6\].B.Q_WIRE\[1\]
+ SLICE\[2\].RAM8.WORD\[3\].W.BYTE\[6\].B.SEL0_B VGND VGND VPWR VPWR BYTE\[6\].FLOATBUF0\[49\].Z
+ sky130_fd_sc_hd__ebufn_2
XFILLER_77_169 VGND VGND VPWR VPWR sky130_fd_sc_hd__decap_4
XSLICE\[1\].RAM8.WORD\[3\].W.BYTE\[4\].B.BIT\[2\].genblk1.STORAGE DIBUF\[34\].X clknet_1_1__leaf_SLICE\[1\].RAM8.WORD\[3\].W.BYTE\[4\].B.GCLK
+ VGND VGND VPWR VPWR SLICE\[1\].RAM8.WORD\[3\].W.BYTE\[4\].B.Q_WIRE\[2\] sky130_fd_sc_hd__dlxtp_1
XSLICE\[3\].RAM8.WORD\[5\].W.BYTE\[4\].B.BIT\[7\].OBUF0 SLICE\[3\].RAM8.WORD\[5\].W.BYTE\[4\].B.Q_WIRE\[7\]
+ SLICE\[3\].RAM8.WORD\[5\].W.BYTE\[4\].B.SEL0_B VGND VGND VPWR VPWR BYTE\[4\].FLOATBUF0\[39\].Z
+ sky130_fd_sc_hd__ebufn_2
XSLICE\[2\].RAM8.WORD\[0\].W.BYTE\[0\].B.BIT\[5\].genblk1.STORAGE DIBUF\[5\].X clknet_1_1__leaf_SLICE\[2\].RAM8.WORD\[0\].W.BYTE\[0\].B.GCLK
+ VGND VGND VPWR VPWR SLICE\[2\].RAM8.WORD\[0\].W.BYTE\[0\].B.Q_WIRE\[5\] sky130_fd_sc_hd__dlxtp_1
XFILLER_19_726 VGND VGND VPWR VPWR sky130_fd_sc_hd__fill_2
XFILLER_100_491 VGND VGND VPWR VPWR sky130_fd_sc_hd__decap_6
XFILLER_37_62 VGND VGND VPWR VPWR sky130_fd_sc_hd__decap_4
XSLICE\[1\].RAM8.WORD\[7\].W.BYTE\[1\].B.BIT\[0\].genblk1.STORAGE DIBUF\[8\].X clknet_1_1__leaf_SLICE\[1\].RAM8.WORD\[7\].W.BYTE\[1\].B.GCLK
+ VGND VGND VPWR VPWR SLICE\[1\].RAM8.WORD\[7\].W.BYTE\[1\].B.Q_WIRE\[0\] sky130_fd_sc_hd__dlxtp_1
XFILLER_46_589 VGND VGND VPWR VPWR sky130_fd_sc_hd__fill_2
XFILLER_27_781 VGND VGND VPWR VPWR sky130_fd_sc_hd__decap_3
XSLICE\[1\].RAM8.WORD\[1\].W.BYTE\[2\].B.BIT\[1\].genblk1.STORAGE DIBUF\[17\].X clknet_1_0__leaf_SLICE\[1\].RAM8.WORD\[1\].W.BYTE\[2\].B.GCLK
+ VGND VGND VPWR VPWR SLICE\[1\].RAM8.WORD\[1\].W.BYTE\[2\].B.Q_WIRE\[1\] sky130_fd_sc_hd__dlxtp_1
XTAP_1641 VGND VPWR sky130_fd_sc_hd__tapvpwrvgnd_1
XTAP_1630 VGND VPWR sky130_fd_sc_hd__tapvpwrvgnd_1
XFILLER_26_291 VGND VGND VPWR VPWR sky130_fd_sc_hd__decap_6
XTAP_1674 VGND VPWR sky130_fd_sc_hd__tapvpwrvgnd_1
XTAP_1685 VGND VPWR sky130_fd_sc_hd__tapvpwrvgnd_1
XTAP_1663 VGND VPWR sky130_fd_sc_hd__tapvpwrvgnd_1
XTAP_1652 VGND VPWR sky130_fd_sc_hd__tapvpwrvgnd_1
XSLICE\[1\].RAM8.WORD\[4\].W.BYTE\[0\].B.BIT\[0\].OBUF0 SLICE\[1\].RAM8.WORD\[4\].W.BYTE\[0\].B.Q_WIRE\[0\]
+ SLICE\[1\].RAM8.WORD\[4\].W.BYTE\[0\].B.SEL0_B VGND VGND VPWR VPWR BYTE\[0\].FLOATBUF0\[0\].Z
+ sky130_fd_sc_hd__ebufn_2
XTAP_1696 VGND VPWR sky130_fd_sc_hd__tapvpwrvgnd_1
XSLICE\[3\].RAM8.WORD\[4\].W.BYTE\[7\].B.CGAND SLICE\[3\].RAM8.WORD\[4\].W.BYTE\[0\].B.SEL0
+ SLICE\[3\].RAM8.WEBUF\[7\].X VGND VGND VPWR VPWR SLICE\[3\].RAM8.WORD\[4\].W.BYTE\[7\].B.WE0_WIRE
+ sky130_fd_sc_hd__and2_1
XSLICE\[2\].RAM8.WORD\[0\].W.BYTE\[3\].B.BIT\[6\].OBUF0 SLICE\[2\].RAM8.WORD\[0\].W.BYTE\[3\].B.Q_WIRE\[6\]
+ SLICE\[2\].RAM8.WORD\[0\].W.BYTE\[3\].B.SEL0_B VGND VGND VPWR VPWR BYTE\[3\].FLOATBUF0\[30\].Z
+ sky130_fd_sc_hd__ebufn_2
XFILLER_5_140 VGND VGND VPWR VPWR sky130_fd_sc_hd__decap_4
XFILLER_127_377 VGND VGND VPWR VPWR sky130_fd_sc_hd__decap_4
XFILLER_6_685 VGND VGND VPWR VPWR sky130_fd_sc_hd__decap_4
XFILLER_123_561 VGND VGND VPWR VPWR sky130_fd_sc_hd__fill_2
XSLICE\[2\].RAM8.WORD\[1\].W.BYTE\[3\].B.genblk1.CG net140 SLICE\[2\].RAM8.WORD\[1\].W.BYTE\[3\].B.WE0_WIRE
+ VGND VGND VPWR VPWR SLICE\[2\].RAM8.WORD\[1\].W.BYTE\[3\].B.GCLK sky130_fd_sc_hd__dlclkp_1
XSLICE\[1\].RAM8.WEBUF\[7\].__cell__ SLICE\[0\].RAM8.WEBUF\[7\].A VGND VGND VPWR VPWR
+ SLICE\[1\].RAM8.WEBUF\[7\].X sky130_fd_sc_hd__clkbuf_2
XFILLER_69_659 VGND VGND VPWR VPWR sky130_fd_sc_hd__decap_4
XFILLER_69_637 VGND VGND VPWR VPWR sky130_fd_sc_hd__decap_8
Xclkbuf_1_1__f_SLICE\[2\].RAM8.WORD\[6\].W.BYTE\[3\].B.GCLK clknet_0_SLICE\[2\].RAM8.WORD\[6\].W.BYTE\[3\].B.GCLK
+ VGND VGND VPWR VPWR clknet_1_1__leaf_SLICE\[2\].RAM8.WORD\[6\].W.BYTE\[3\].B.GCLK
+ sky130_fd_sc_hd__clkbuf_16
XFILLER_110_266 VGND VGND VPWR VPWR sky130_fd_sc_hd__fill_1
XFILLER_96_467 VGND VGND VPWR VPWR sky130_fd_sc_hd__decap_4
XFILLER_56_309 VGND VGND VPWR VPWR sky130_fd_sc_hd__fill_2
XSLICE\[0\].RAM8.WORD\[6\].W.BYTE\[3\].B.BIT\[7\].genblk1.STORAGE DIBUF\[31\].X clknet_1_0__leaf_SLICE\[0\].RAM8.WORD\[6\].W.BYTE\[3\].B.GCLK
+ VGND VGND VPWR VPWR SLICE\[0\].RAM8.WORD\[6\].W.BYTE\[3\].B.Q_WIRE\[7\] sky130_fd_sc_hd__dlxtp_1
XFILLER_94_90 VGND VGND VPWR VPWR sky130_fd_sc_hd__decap_4
XFILLER_37_545 VGND VGND VPWR VPWR sky130_fd_sc_hd__decap_4
XFILLER_18_781 VGND VGND VPWR VPWR sky130_fd_sc_hd__decap_4
XFILLER_25_729 VGND VGND VPWR VPWR sky130_fd_sc_hd__fill_2
XSLICE\[0\].RAM8.WORD\[3\].W.BYTE\[2\].B.BIT\[2\].OBUF0 SLICE\[0\].RAM8.WORD\[3\].W.BYTE\[2\].B.Q_WIRE\[2\]
+ SLICE\[0\].RAM8.WORD\[3\].W.BYTE\[2\].B.SEL0_B VGND VGND VPWR VPWR BYTE\[2\].FLOATBUF0\[18\].Z
+ sky130_fd_sc_hd__ebufn_2
XFILLER_32_250 VGND VGND VPWR VPWR sky130_fd_sc_hd__fill_2
XSLICE\[0\].RAM8.WORD\[4\].W.BYTE\[1\].B.BIT\[6\].genblk1.STORAGE DIBUF\[14\].X clknet_1_1__leaf_SLICE\[0\].RAM8.WORD\[4\].W.BYTE\[1\].B.GCLK
+ VGND VGND VPWR VPWR SLICE\[0\].RAM8.WORD\[4\].W.BYTE\[1\].B.Q_WIRE\[6\] sky130_fd_sc_hd__dlxtp_1
XSLICE\[0\].RAM8.WORD\[7\].W.BYTE\[5\].B.BIT\[5\].OBUF0 SLICE\[0\].RAM8.WORD\[7\].W.BYTE\[5\].B.Q_WIRE\[5\]
+ SLICE\[0\].RAM8.WORD\[7\].W.BYTE\[5\].B.SEL0_B VGND VGND VPWR VPWR BYTE\[5\].FLOATBUF0\[45\].Z
+ sky130_fd_sc_hd__ebufn_2
XSLICE\[3\].RAM8.WORD\[4\].W.BYTE\[2\].B.BIT\[4\].OBUF0 SLICE\[3\].RAM8.WORD\[4\].W.BYTE\[2\].B.Q_WIRE\[4\]
+ SLICE\[3\].RAM8.WORD\[4\].W.BYTE\[2\].B.SEL0_B VGND VGND VPWR VPWR BYTE\[2\].FLOATBUF0\[20\].Z
+ sky130_fd_sc_hd__ebufn_2
XFILLER_102_701 VGND VGND VPWR VPWR sky130_fd_sc_hd__fill_2
XSLICE\[2\].RAM8.WORD\[6\].W.BYTE\[7\].B.BIT\[1\].OBUF0 SLICE\[2\].RAM8.WORD\[6\].W.BYTE\[7\].B.Q_WIRE\[1\]
+ SLICE\[2\].RAM8.WORD\[6\].W.BYTE\[7\].B.SEL0_B VGND VGND VPWR VPWR BYTE\[7\].FLOATBUF0\[57\].Z
+ sky130_fd_sc_hd__ebufn_2
XFILLER_101_222 VGND VGND VPWR VPWR sky130_fd_sc_hd__fill_2
XFILLER_87_445 VGND VGND VPWR VPWR sky130_fd_sc_hd__decap_3
XFILLER_59_125 VGND VGND VPWR VPWR sky130_fd_sc_hd__decap_4
XFILLER_59_169 VGND VGND VPWR VPWR sky130_fd_sc_hd__decap_4
XFILLER_114_56 VGND VGND VPWR VPWR sky130_fd_sc_hd__decap_4
XSLICE\[3\].RAM8.WORD\[4\].W.BYTE\[6\].B.BIT\[2\].genblk1.STORAGE DIBUF\[50\].X clknet_1_1__leaf_SLICE\[3\].RAM8.WORD\[4\].W.BYTE\[6\].B.GCLK
+ VGND VGND VPWR VPWR SLICE\[3\].RAM8.WORD\[4\].W.BYTE\[6\].B.Q_WIRE\[2\] sky130_fd_sc_hd__dlxtp_1
XFILLER_83_673 VGND VGND VPWR VPWR sky130_fd_sc_hd__decap_8
XFILLER_55_364 VGND VGND VPWR VPWR sky130_fd_sc_hd__decap_6
XFILLER_15_206 VGND VGND VPWR VPWR sky130_fd_sc_hd__decap_4
XFILLER_28_589 VGND VGND VPWR VPWR sky130_fd_sc_hd__fill_2
XSLICE\[1\].RAM8.WORD\[7\].W.BYTE\[1\].B.BIT\[0\].OBUF0 SLICE\[1\].RAM8.WORD\[7\].W.BYTE\[1\].B.Q_WIRE\[0\]
+ SLICE\[1\].RAM8.WORD\[7\].W.BYTE\[1\].B.SEL0_B VGND VGND VPWR VPWR BYTE\[1\].FLOATBUF0\[8\].Z
+ sky130_fd_sc_hd__ebufn_2
XFILLER_82_194 VGND VGND VPWR VPWR sky130_fd_sc_hd__fill_2
XFILLER_70_323 VGND VGND VPWR VPWR sky130_fd_sc_hd__decap_4
XFILLER_130_77 VGND VGND VPWR VPWR sky130_fd_sc_hd__decap_6
XFILLER_90_37 VGND VGND VPWR VPWR sky130_fd_sc_hd__decap_4
XFILLER_90_26 VGND VGND VPWR VPWR sky130_fd_sc_hd__fill_2
XSLICE\[3\].RAM8.WORD\[2\].W.BYTE\[4\].B.BIT\[1\].genblk1.STORAGE DIBUF\[33\].X clknet_1_0__leaf_SLICE\[3\].RAM8.WORD\[2\].W.BYTE\[4\].B.GCLK
+ VGND VGND VPWR VPWR SLICE\[3\].RAM8.WORD\[2\].W.BYTE\[4\].B.Q_WIRE\[1\] sky130_fd_sc_hd__dlxtp_1
XSLICE\[3\].RAM8.WORD\[0\].W.BYTE\[2\].B.BIT\[0\].genblk1.STORAGE DIBUF\[16\].X clknet_1_0__leaf_SLICE\[3\].RAM8.WORD\[0\].W.BYTE\[2\].B.GCLK
+ VGND VGND VPWR VPWR SLICE\[3\].RAM8.WORD\[0\].W.BYTE\[2\].B.Q_WIRE\[0\] sky130_fd_sc_hd__dlxtp_1
XSLICE\[2\].RAM8.WORD\[3\].W.BYTE\[4\].B.BIT\[6\].OBUF0 SLICE\[2\].RAM8.WORD\[3\].W.BYTE\[4\].B.Q_WIRE\[6\]
+ SLICE\[2\].RAM8.WORD\[3\].W.BYTE\[4\].B.SEL0_B VGND VGND VPWR VPWR BYTE\[4\].FLOATBUF0\[38\].Z
+ sky130_fd_sc_hd__ebufn_2
XFILLER_7_449 VGND VGND VPWR VPWR sky130_fd_sc_hd__fill_2
XFILLER_23_86 VGND VGND VPWR VPWR sky130_fd_sc_hd__decap_4
XSLICE\[0\].RAM8.WORD\[2\].W.SEL0BUF SLICE\[0\].RAM8.WORD\[2\].W.SEL0 VGND VGND VPWR
+ VPWR SLICE\[0\].RAM8.WORD\[2\].W.BYTE\[0\].B.SEL0 sky130_fd_sc_hd__clkbuf_2
XSLICE\[1\].RAM8.WORD\[1\].W.BYTE\[6\].B.BIT\[0\].OBUF0 SLICE\[1\].RAM8.WORD\[1\].W.BYTE\[6\].B.Q_WIRE\[0\]
+ SLICE\[1\].RAM8.WORD\[1\].W.BYTE\[6\].B.SEL0_B VGND VGND VPWR VPWR BYTE\[6\].FLOATBUF0\[48\].Z
+ sky130_fd_sc_hd__ebufn_2
XFILLER_124_325 VGND VGND VPWR VPWR sky130_fd_sc_hd__decap_4
XFILLER_99_57 VGND VGND VPWR VPWR sky130_fd_sc_hd__decap_6
XFILLER_3_611 VGND VGND VPWR VPWR sky130_fd_sc_hd__decap_4
XSLICE\[0\].RAM8.WORD\[1\].W.CLKBUF SLICE\[0\].RAM8.CLKBUF.X VGND VGND VPWR VPWR SLICE\[0\].RAM8.WORD\[1\].W.BYTE\[0\].B.CLK
+ sky130_fd_sc_hd__clkbuf_4
XFILLER_3_644 VGND VGND VPWR VPWR sky130_fd_sc_hd__decap_4
XFILLER_2_110 VGND VGND VPWR VPWR sky130_ef_sc_hd__decap_12
XFILLER_105_572 VGND VGND VPWR VPWR sky130_fd_sc_hd__decap_6
XFILLER_105_561 VGND VGND VPWR VPWR sky130_fd_sc_hd__fill_2