* NGSPICE file created from upper_core_logic.ext - technology: sky130B

* Black-box entry subcircuit for sky130_fd_sc_hd__fill_1 abstract view
.subckt sky130_fd_sc_hd__fill_1 VGND VNB VPB VPWR
.ends

* Black-box entry subcircuit for sky130_fd_sc_hd__tapvpwrvgnd_1 abstract view
.subckt sky130_fd_sc_hd__tapvpwrvgnd_1 VGND VPWR
.ends

* Black-box entry subcircuit for sky130_fd_sc_hd__decap_4 abstract view
.subckt sky130_fd_sc_hd__decap_4 VGND VNB VPB VPWR
.ends

* Black-box entry subcircuit for sky130_ef_sc_hd__decap_12 abstract view
.subckt sky130_ef_sc_hd__decap_12 VGND VPWR VPB VNB
.ends

* Black-box entry subcircuit for sky130_fd_sc_hd__dfxtp_1 abstract view
.subckt sky130_fd_sc_hd__dfxtp_1 CLK D VGND VNB VPB VPWR Q
.ends

* Black-box entry subcircuit for sky130_fd_sc_hd__diode_2 abstract view
.subckt sky130_fd_sc_hd__diode_2 DIODE VGND VNB VPB VPWR
.ends

* Black-box entry subcircuit for sky130_fd_sc_hd__decap_6 abstract view
.subckt sky130_fd_sc_hd__decap_6 VGND VNB VPB VPWR
.ends

* Black-box entry subcircuit for sky130_fd_sc_hd__fill_2 abstract view
.subckt sky130_fd_sc_hd__fill_2 VGND VNB VPB VPWR
.ends

* Black-box entry subcircuit for sky130_fd_sc_hd__decap_8 abstract view
.subckt sky130_fd_sc_hd__decap_8 VGND VNB VPB VPWR
.ends

* Black-box entry subcircuit for sky130_fd_sc_hd__nor2_1 abstract view
.subckt sky130_fd_sc_hd__nor2_1 A B VGND VNB VPB VPWR Y
.ends

* Black-box entry subcircuit for sky130_fd_sc_hd__mux2_1 abstract view
.subckt sky130_fd_sc_hd__mux2_1 A0 A1 S VGND VNB VPB VPWR X
.ends

* Black-box entry subcircuit for sky130_fd_sc_hd__a22o_1 abstract view
.subckt sky130_fd_sc_hd__a22o_1 A1 A2 B1 B2 VGND VNB VPB VPWR X
.ends

* Black-box entry subcircuit for sky130_fd_sc_hd__or2b_1 abstract view
.subckt sky130_fd_sc_hd__or2b_1 A B_N VGND VNB VPB VPWR X
.ends

* Black-box entry subcircuit for sky130_fd_sc_hd__or4bb_1 abstract view
.subckt sky130_fd_sc_hd__or4bb_1 A B C_N D_N VGND VNB VPB VPWR X
.ends

* Black-box entry subcircuit for sky130_fd_sc_hd__clkbuf_4 abstract view
.subckt sky130_fd_sc_hd__clkbuf_4 A VGND VNB VPB VPWR X
.ends

* Black-box entry subcircuit for sky130_fd_sc_hd__a221o_1 abstract view
.subckt sky130_fd_sc_hd__a221o_1 A1 A2 B1 B2 C1 VGND VNB VPB VPWR X
.ends

* Black-box entry subcircuit for sky130_fd_sc_hd__buf_4 abstract view
.subckt sky130_fd_sc_hd__buf_4 A VGND VNB VPB VPWR X
.ends

* Black-box entry subcircuit for sky130_fd_sc_hd__decap_3 abstract view
.subckt sky130_fd_sc_hd__decap_3 VGND VNB VPB VPWR
.ends

* Black-box entry subcircuit for sky130_fd_sc_hd__or2_1 abstract view
.subckt sky130_fd_sc_hd__or2_1 A B VGND VNB VPB VPWR X
.ends

* Black-box entry subcircuit for sky130_fd_sc_hd__a31o_2 abstract view
.subckt sky130_fd_sc_hd__a31o_2 A1 A2 A3 B1 VGND VNB VPB VPWR X
.ends

* Black-box entry subcircuit for sky130_fd_sc_hd__mux4_1 abstract view
.subckt sky130_fd_sc_hd__mux4_1 A0 A1 A2 A3 S0 S1 VGND VNB VPB VPWR X
.ends

* Black-box entry subcircuit for sky130_fd_sc_hd__buf_2 abstract view
.subckt sky130_fd_sc_hd__buf_2 A VGND VNB VPB VPWR X
.ends

* Black-box entry subcircuit for sky130_fd_sc_hd__nor2_2 abstract view
.subckt sky130_fd_sc_hd__nor2_2 A B VGND VNB VPB VPWR Y
.ends

* Black-box entry subcircuit for sky130_fd_sc_hd__buf_6 abstract view
.subckt sky130_fd_sc_hd__buf_6 A VGND VNB VPB VPWR X
.ends

* Black-box entry subcircuit for sky130_fd_sc_hd__o21a_1 abstract view
.subckt sky130_fd_sc_hd__o21a_1 A1 A2 B1 VGND VNB VPB VPWR X
.ends

* Black-box entry subcircuit for sky130_fd_sc_hd__clkbuf_16 abstract view
.subckt sky130_fd_sc_hd__clkbuf_16 A VGND VNB VPB VPWR X
.ends

* Black-box entry subcircuit for sky130_fd_sc_hd__or4b_2 abstract view
.subckt sky130_fd_sc_hd__or4b_2 A B C D_N VGND VNB VPB VPWR X
.ends

* Black-box entry subcircuit for sky130_fd_sc_hd__or3b_1 abstract view
.subckt sky130_fd_sc_hd__or3b_1 A B C_N VGND VNB VPB VPWR X
.ends

* Black-box entry subcircuit for sky130_fd_sc_hd__a21o_1 abstract view
.subckt sky130_fd_sc_hd__a21o_1 A1 A2 B1 VGND VNB VPB VPWR X
.ends

* Black-box entry subcircuit for sky130_fd_sc_hd__or3_1 abstract view
.subckt sky130_fd_sc_hd__or3_1 A B C VGND VNB VPB VPWR X
.ends

* Black-box entry subcircuit for sky130_fd_sc_hd__or4_2 abstract view
.subckt sky130_fd_sc_hd__or4_2 A B C D VGND VNB VPB VPWR X
.ends

* Black-box entry subcircuit for sky130_fd_sc_hd__or4b_1 abstract view
.subckt sky130_fd_sc_hd__or4b_1 A B C D_N VGND VNB VPB VPWR X
.ends

* Black-box entry subcircuit for sky130_fd_sc_hd__clkbuf_2 abstract view
.subckt sky130_fd_sc_hd__clkbuf_2 A VGND VNB VPB VPWR X
.ends

* Black-box entry subcircuit for sky130_fd_sc_hd__or4_1 abstract view
.subckt sky130_fd_sc_hd__or4_1 A B C D VGND VNB VPB VPWR X
.ends

* Black-box entry subcircuit for sky130_fd_sc_hd__o211a_1 abstract view
.subckt sky130_fd_sc_hd__o211a_1 A1 A2 B1 C1 VGND VNB VPB VPWR X
.ends

* Black-box entry subcircuit for sky130_fd_sc_hd__o22a_1 abstract view
.subckt sky130_fd_sc_hd__o22a_1 A1 A2 B1 B2 VGND VNB VPB VPWR X
.ends

* Black-box entry subcircuit for sky130_fd_sc_hd__nand2_1 abstract view
.subckt sky130_fd_sc_hd__nand2_1 A B VGND VNB VPB VPWR Y
.ends

* Black-box entry subcircuit for sky130_fd_sc_hd__inv_2 abstract view
.subckt sky130_fd_sc_hd__inv_2 A VGND VNB VPB VPWR Y
.ends

* Black-box entry subcircuit for sky130_fd_sc_hd__mux4_2 abstract view
.subckt sky130_fd_sc_hd__mux4_2 A0 A1 A2 A3 S0 S1 VGND VNB VPB VPWR X
.ends

* Black-box entry subcircuit for sky130_fd_sc_hd__clkinv_2 abstract view
.subckt sky130_fd_sc_hd__clkinv_2 A VGND VNB VPB VPWR Y
.ends

* Black-box entry subcircuit for sky130_fd_sc_hd__o211a_2 abstract view
.subckt sky130_fd_sc_hd__o211a_2 A1 A2 B1 C1 VGND VNB VPB VPWR X
.ends

* Black-box entry subcircuit for sky130_fd_sc_hd__o21ai_1 abstract view
.subckt sky130_fd_sc_hd__o21ai_1 A1 A2 B1 VGND VNB VPB VPWR Y
.ends

* Black-box entry subcircuit for sky130_fd_sc_hd__o32a_1 abstract view
.subckt sky130_fd_sc_hd__o32a_1 A1 A2 A3 B1 B2 VGND VNB VPB VPWR X
.ends

* Black-box entry subcircuit for sky130_fd_sc_hd__clkbuf_1 abstract view
.subckt sky130_fd_sc_hd__clkbuf_1 A VGND VNB VPB VPWR X
.ends

* Black-box entry subcircuit for sky130_fd_sc_hd__clkbuf_8 abstract view
.subckt sky130_fd_sc_hd__clkbuf_8 A VGND VNB VPB VPWR X
.ends

* Black-box entry subcircuit for sky130_fd_sc_hd__a211o_1 abstract view
.subckt sky130_fd_sc_hd__a211o_1 A1 A2 B1 C1 VGND VNB VPB VPWR X
.ends

* Black-box entry subcircuit for sky130_fd_sc_hd__and2_1 abstract view
.subckt sky130_fd_sc_hd__and2_1 A B VGND VNB VPB VPWR X
.ends

* Black-box entry subcircuit for sky130_fd_sc_hd__dlymetal6s2s_1 abstract view
.subckt sky130_fd_sc_hd__dlymetal6s2s_1 A VGND VNB VPB VPWR X
.ends

* Black-box entry subcircuit for sky130_fd_sc_hd__or2_2 abstract view
.subckt sky130_fd_sc_hd__or2_2 A B VGND VNB VPB VPWR X
.ends

* Black-box entry subcircuit for sky130_fd_sc_hd__a311o_1 abstract view
.subckt sky130_fd_sc_hd__a311o_1 A1 A2 A3 B1 C1 VGND VNB VPB VPWR X
.ends

* Black-box entry subcircuit for sky130_fd_sc_hd__a31o_1 abstract view
.subckt sky130_fd_sc_hd__a31o_1 A1 A2 A3 B1 VGND VNB VPB VPWR X
.ends

* Black-box entry subcircuit for sky130_fd_sc_hd__conb_1 abstract view
.subckt sky130_fd_sc_hd__conb_1 VGND VNB VPB VPWR HI LO
.ends

* Black-box entry subcircuit for sky130_fd_sc_hd__o32a_2 abstract view
.subckt sky130_fd_sc_hd__o32a_2 A1 A2 A3 B1 B2 VGND VNB VPB VPWR X
.ends

* Black-box entry subcircuit for sky130_fd_sc_hd__o31a_1 abstract view
.subckt sky130_fd_sc_hd__o31a_1 A1 A2 A3 B1 VGND VNB VPB VPWR X
.ends

* Black-box entry subcircuit for sky130_fd_sc_hd__o21ba_1 abstract view
.subckt sky130_fd_sc_hd__o21ba_1 A1 A2 B1_N VGND VNB VPB VPWR X
.ends

* Black-box entry subcircuit for sky130_fd_sc_hd__o221a_1 abstract view
.subckt sky130_fd_sc_hd__o221a_1 A1 A2 B1 B2 C1 VGND VNB VPB VPWR X
.ends

* Black-box entry subcircuit for sky130_fd_sc_hd__nand3_1 abstract view
.subckt sky130_fd_sc_hd__nand3_1 A B C VGND VNB VPB VPWR Y
.ends

.subckt upper_core_logic cc_data_page cc_instr_page data_cacheable data_mem_addr[0]
+ data_mem_addr[10] data_mem_addr[11] data_mem_addr[12] data_mem_addr[13] data_mem_addr[14]
+ data_mem_addr[15] data_mem_addr[1] data_mem_addr[2] data_mem_addr[3] data_mem_addr[4]
+ data_mem_addr[5] data_mem_addr[6] data_mem_addr[7] data_mem_addr[8] data_mem_addr[9]
+ data_mem_addr_paged[0] data_mem_addr_paged[10] data_mem_addr_paged[11] data_mem_addr_paged[12]
+ data_mem_addr_paged[13] data_mem_addr_paged[14] data_mem_addr_paged[15] data_mem_addr_paged[16]
+ data_mem_addr_paged[17] data_mem_addr_paged[18] data_mem_addr_paged[19] data_mem_addr_paged[1]
+ data_mem_addr_paged[20] data_mem_addr_paged[21] data_mem_addr_paged[22] data_mem_addr_paged[23]
+ data_mem_addr_paged[2] data_mem_addr_paged[3] data_mem_addr_paged[4] data_mem_addr_paged[5]
+ data_mem_addr_paged[6] data_mem_addr_paged[7] data_mem_addr_paged[8] data_mem_addr_paged[9]
+ fetch_wb_adr[0] fetch_wb_adr[10] fetch_wb_adr[11] fetch_wb_adr[12] fetch_wb_adr[13]
+ fetch_wb_adr[14] fetch_wb_adr[15] fetch_wb_adr[1] fetch_wb_adr[2] fetch_wb_adr[3]
+ fetch_wb_adr[4] fetch_wb_adr[5] fetch_wb_adr[6] fetch_wb_adr[7] fetch_wb_adr[8]
+ fetch_wb_adr[9] fetch_wb_adr_paged[0] fetch_wb_adr_paged[10] fetch_wb_adr_paged[11]
+ fetch_wb_adr_paged[12] fetch_wb_adr_paged[13] fetch_wb_adr_paged[14] fetch_wb_adr_paged[15]
+ fetch_wb_adr_paged[16] fetch_wb_adr_paged[17] fetch_wb_adr_paged[18] fetch_wb_adr_paged[19]
+ fetch_wb_adr_paged[1] fetch_wb_adr_paged[20] fetch_wb_adr_paged[21] fetch_wb_adr_paged[22]
+ fetch_wb_adr_paged[23] fetch_wb_adr_paged[2] fetch_wb_adr_paged[3] fetch_wb_adr_paged[4]
+ fetch_wb_adr_paged[5] fetch_wb_adr_paged[6] fetch_wb_adr_paged[7] fetch_wb_adr_paged[8]
+ fetch_wb_adr_paged[9] fetch_wb_o_dat[0] fetch_wb_o_dat[10] fetch_wb_o_dat[11] fetch_wb_o_dat[12]
+ fetch_wb_o_dat[13] fetch_wb_o_dat[14] fetch_wb_o_dat[15] fetch_wb_o_dat[1] fetch_wb_o_dat[2]
+ fetch_wb_o_dat[3] fetch_wb_o_dat[4] fetch_wb_o_dat[5] fetch_wb_o_dat[6] fetch_wb_o_dat[7]
+ fetch_wb_o_dat[8] fetch_wb_o_dat[9] i_clk i_rst sr_bus_addr[0] sr_bus_addr[10] sr_bus_addr[11]
+ sr_bus_addr[12] sr_bus_addr[13] sr_bus_addr[14] sr_bus_addr[15] sr_bus_addr[1] sr_bus_addr[2]
+ sr_bus_addr[3] sr_bus_addr[4] sr_bus_addr[5] sr_bus_addr[6] sr_bus_addr[7] sr_bus_addr[8]
+ sr_bus_addr[9] sr_bus_data_o[0] sr_bus_data_o[10] sr_bus_data_o[11] sr_bus_data_o[12]
+ sr_bus_data_o[13] sr_bus_data_o[14] sr_bus_data_o[15] sr_bus_data_o[1] sr_bus_data_o[2]
+ sr_bus_data_o[3] sr_bus_data_o[4] sr_bus_data_o[5] sr_bus_data_o[6] sr_bus_data_o[7]
+ sr_bus_data_o[8] sr_bus_data_o[9] sr_bus_we vccd1 vssd1 wb0_8_burst wb1_4_burst
+ wb1_8_burst
XFILLER_79_391 vssd1 vssd1 vccd1 vccd1 sky130_fd_sc_hd__fill_1
XTAP_188 vssd1 vccd1 sky130_fd_sc_hd__tapvpwrvgnd_1
XTAP_177 vssd1 vccd1 sky130_fd_sc_hd__tapvpwrvgnd_1
XTAP_199 vssd1 vccd1 sky130_fd_sc_hd__tapvpwrvgnd_1
XFILLER_39_211 vssd1 vssd1 vccd1 vccd1 sky130_fd_sc_hd__decap_4
XFILLER_82_512 vssd1 vssd1 vccd1 vccd1 sky130_fd_sc_hd__decap_4
XFILLER_27_417 vssd1 vccd1 vccd1 vssd1 sky130_ef_sc_hd__decap_12
X_2106_ _2156_/CLK _2106_/D vssd1 vssd1 vccd1 vccd1 _2106_/Q sky130_fd_sc_hd__dfxtp_1
X_2037_ _2180_/CLK _2037_/D vssd1 vssd1 vccd1 vccd1 _2037_/Q sky130_fd_sc_hd__dfxtp_1
XANTENNA__1454__A1 _1398_/X vssd1 vssd1 vccd1 vccd1 sky130_fd_sc_hd__diode_2
XFILLER_52_29 vssd1 vssd1 vccd1 vccd1 sky130_fd_sc_hd__decap_6
XANTENNA__1757__A2 _1748_/X vssd1 vssd1 vccd1 vccd1 sky130_fd_sc_hd__diode_2
XANTENNA__1509__A2 _1501_/X vssd1 vssd1 vccd1 vccd1 sky130_fd_sc_hd__diode_2
XFILLER_77_15 vssd1 vccd1 vccd1 vssd1 sky130_ef_sc_hd__decap_12
XANTENNA__1390__B1 _1386_/X vssd1 vssd1 vccd1 vccd1 sky130_fd_sc_hd__diode_2
XANTENNA__1693__A1 _1641_/X vssd1 vssd1 vccd1 vccd1 sky130_fd_sc_hd__diode_2
XFILLER_13_133 vssd1 vssd1 vccd1 vccd1 sky130_fd_sc_hd__fill_1
XFILLER_13_111 vssd1 vssd1 vccd1 vccd1 sky130_fd_sc_hd__fill_1
XFILLER_13_155 vssd1 vccd1 vccd1 vssd1 sky130_ef_sc_hd__decap_12
XFILLER_13_177 vssd1 vssd1 vccd1 vccd1 sky130_fd_sc_hd__decap_4
XFILLER_9_126 vssd1 vssd1 vccd1 vccd1 sky130_fd_sc_hd__decap_4
XFILLER_42_62 vssd1 vssd1 vccd1 vccd1 sky130_fd_sc_hd__fill_2
XFILLER_42_73 vssd1 vssd1 vccd1 vccd1 sky130_fd_sc_hd__decap_8
XFILLER_3_78 vssd1 vssd1 vccd1 vccd1 sky130_fd_sc_hd__fill_1
XANTENNA_clkbuf_leaf_29_i_clk_A clkbuf_2_2__f_i_clk/X vssd1 vssd1 vccd1 vccd1 sky130_fd_sc_hd__diode_2
X_1270_ _1498_/A _1270_/B vssd1 vssd1 vccd1 vccd1 _1271_/A sky130_fd_sc_hd__nor2_1
XANTENNA__1133__B1 _1064_/X vssd1 vssd1 vccd1 vccd1 sky130_fd_sc_hd__diode_2
XFILLER_64_501 vssd1 vccd1 vccd1 vssd1 sky130_ef_sc_hd__decap_12
XFILLER_76_372 vssd1 vssd1 vccd1 vccd1 sky130_fd_sc_hd__decap_6
XANTENNA__1684__A1 _1623_/X vssd1 vssd1 vccd1 vccd1 sky130_fd_sc_hd__diode_2
XFILLER_36_225 vssd1 vssd1 vccd1 vccd1 sky130_fd_sc_hd__decap_4
XFILLER_36_269 vssd1 vssd1 vccd1 vccd1 sky130_fd_sc_hd__fill_2
XFILLER_51_206 vssd1 vssd1 vccd1 vccd1 sky130_fd_sc_hd__fill_1
XANTENNA__1436__A1 _1407_/X vssd1 vssd1 vccd1 vccd1 sky130_fd_sc_hd__diode_2
XFILLER_51_239 vssd1 vssd1 vccd1 vccd1 sky130_fd_sc_hd__decap_4
XANTENNA__1739__A2 _1731_/X vssd1 vssd1 vccd1 vccd1 sky130_fd_sc_hd__diode_2
XANTENNA__1619__A _1620_/B vssd1 vssd1 vccd1 vccd1 sky130_fd_sc_hd__diode_2
X_0985_ _2034_/Q _2008_/Q _1010_/S vssd1 vssd1 vccd1 vccd1 _0985_/X sky130_fd_sc_hd__mux2_1
XFILLER_8_192 vssd1 vssd1 vccd1 vccd1 sky130_fd_sc_hd__decap_4
XANTENNA__1047__S0 _1008_/S vssd1 vssd1 vccd1 vccd1 sky130_fd_sc_hd__diode_2
X_1606_ _1405_/X _1602_/X _1604_/X _2041_/Q vssd1 vssd1 vccd1 vccd1 _2041_/D sky130_fd_sc_hd__a22o_1
XANTENNA__1372__B1 _1369_/X vssd1 vssd1 vccd1 vccd1 sky130_fd_sc_hd__diode_2
X_1537_ _1407_/X _1532_/X _1534_/X _1990_/Q vssd1 vssd1 vccd1 vccd1 _1990_/D sky130_fd_sc_hd__a22o_1
X_1468_ _1767_/A _1467_/A vssd1 vssd1 vccd1 vccd1 _1469_/A sky130_fd_sc_hd__or2b_1
XFILLER_74_309 vssd1 vssd1 vccd1 vccd1 sky130_fd_sc_hd__fill_1
X_1399_ _1481_/B _1449_/A _1764_/B _1764_/A vssd1 vssd1 vccd1 vccd1 _1514_/A sky130_fd_sc_hd__or4bb_1
XANTENNA__1675__A1 _1639_/X vssd1 vssd1 vccd1 vccd1 sky130_fd_sc_hd__diode_2
XFILLER_27_214 vssd1 vssd1 vccd1 vccd1 sky130_fd_sc_hd__decap_8
XFILLER_82_375 vssd1 vssd1 vccd1 vccd1 sky130_fd_sc_hd__decap_4
XFILLER_42_228 vssd1 vssd1 vccd1 vccd1 sky130_fd_sc_hd__decap_4
XFILLER_23_420 vssd1 vccd1 vccd1 vssd1 sky130_ef_sc_hd__decap_12
XANTENNA__0938__B1 input7/X vssd1 vssd1 vccd1 vccd1 sky130_fd_sc_hd__diode_2
XANTENNA__1038__S0 _1002_/S vssd1 vssd1 vccd1 vccd1 sky130_fd_sc_hd__diode_2
XFILLER_2_357 vssd1 vssd1 vccd1 vccd1 sky130_fd_sc_hd__decap_6
XANTENNA__1363__B1 _1353_/X vssd1 vssd1 vccd1 vccd1 sky130_fd_sc_hd__diode_2
XFILLER_77_103 vssd1 vssd1 vccd1 vccd1 sky130_fd_sc_hd__decap_8
XANTENNA_clkbuf_leaf_30_i_clk_A clkbuf_2_2__f_i_clk/X vssd1 vssd1 vccd1 vccd1 sky130_fd_sc_hd__diode_2
XFILLER_77_169 vssd1 vssd1 vccd1 vccd1 sky130_fd_sc_hd__decap_6
XFILLER_77_158 vssd1 vssd1 vccd1 vccd1 sky130_fd_sc_hd__decap_4
XFILLER_58_383 vssd1 vssd1 vccd1 vccd1 sky130_fd_sc_hd__fill_1
XANTENNA__1666__A1 _1600_/X vssd1 vssd1 vccd1 vccd1 sky130_fd_sc_hd__diode_2
XFILLER_18_214 vssd1 vssd1 vccd1 vccd1 sky130_fd_sc_hd__fill_1
XFILLER_37_51 vssd1 vssd1 vccd1 vccd1 sky130_fd_sc_hd__decap_4
XFILLER_46_512 vssd1 vssd1 vccd1 vccd1 sky130_fd_sc_hd__decap_4
XANTENNA__1418__A1 _1417_/X vssd1 vssd1 vccd1 vccd1 sky130_fd_sc_hd__diode_2
XANTENNA__1029__S0 _0967_/X vssd1 vssd1 vccd1 vccd1 sky130_fd_sc_hd__diode_2
XANTENNA__1354__B1 _1353_/X vssd1 vssd1 vccd1 vccd1 sky130_fd_sc_hd__diode_2
XFILLER_78_80 vssd1 vssd1 vccd1 vccd1 sky130_fd_sc_hd__decap_4
XFILLER_68_136 vssd1 vssd1 vccd1 vccd1 sky130_fd_sc_hd__decap_4
X_1322_ _1212_/X _1319_/X _1321_/X _1852_/Q vssd1 vssd1 vccd1 vccd1 _1852_/D sky130_fd_sc_hd__a22o_1
X_1253_ _1254_/B vssd1 vssd1 vccd1 vccd1 _1253_/X sky130_fd_sc_hd__clkbuf_4
XFILLER_56_309 vssd1 vssd1 vccd1 vccd1 sky130_fd_sc_hd__fill_2
XANTENNA__1657__A1 _1637_/X vssd1 vssd1 vccd1 vccd1 sky130_fd_sc_hd__diode_2
X_1184_ _1180_/X _1182_/X _1183_/X _1116_/A _1079_/X vssd1 vssd1 vccd1 vccd1 _1184_/X
+ sky130_fd_sc_hd__a221o_1
XFILLER_20_445 vssd1 vssd1 vccd1 vccd1 sky130_fd_sc_hd__decap_4
X_0968_ _0968_/A vssd1 vssd1 vccd1 vccd1 _0968_/X sky130_fd_sc_hd__buf_4
XFILLER_9_490 vssd1 vccd1 vccd1 vssd1 sky130_ef_sc_hd__decap_12
X_0899_ input6/X vssd1 vssd1 vccd1 vccd1 _0968_/A sky130_fd_sc_hd__buf_4
XANTENNA__1593__B1 _1586_/X vssd1 vssd1 vccd1 vccd1 sky130_fd_sc_hd__diode_2
XANTENNA__1345__B1 _1337_/X vssd1 vssd1 vccd1 vccd1 sky130_fd_sc_hd__diode_2
XANTENNA__1084__A input2/X vssd1 vssd1 vccd1 vccd1 sky130_fd_sc_hd__diode_2
XFILLER_59_158 vssd1 vssd1 vccd1 vccd1 sky130_fd_sc_hd__decap_4
XFILLER_47_309 vssd1 vssd1 vccd1 vccd1 sky130_fd_sc_hd__decap_4
XFILLER_67_180 vssd1 vssd1 vccd1 vccd1 sky130_fd_sc_hd__decap_8
XFILLER_11_423 vssd1 vssd1 vccd1 vccd1 sky130_fd_sc_hd__decap_4
XFILLER_23_20 vssd1 vssd1 vccd1 vccd1 sky130_fd_sc_hd__fill_2
XFILLER_7_449 vssd1 vccd1 vccd1 vssd1 sky130_ef_sc_hd__decap_12
XANTENNA_input55_A sr_bus_data_o[12] vssd1 vssd1 vccd1 vccd1 sky130_fd_sc_hd__diode_2
XFILLER_2_154 vssd1 vssd1 vccd1 vccd1 sky130_fd_sc_hd__decap_4
XFILLER_78_423 vssd1 vssd1 vccd1 vccd1 sky130_fd_sc_hd__decap_6
XFILLER_78_467 vssd1 vssd1 vccd1 vccd1 sky130_fd_sc_hd__decap_8
XFILLER_48_83 vssd1 vssd1 vccd1 vccd1 sky130_fd_sc_hd__fill_1
XFILLER_58_180 vssd1 vssd1 vccd1 vccd1 sky130_fd_sc_hd__decap_4
XFILLER_0_35 vssd1 vssd1 vccd1 vccd1 sky130_fd_sc_hd__decap_4
XFILLER_46_320 vssd1 vssd1 vccd1 vccd1 sky130_fd_sc_hd__fill_1
XFILLER_0_57 vssd1 vssd1 vccd1 vccd1 sky130_fd_sc_hd__decap_3
XFILLER_34_515 vssd1 vssd1 vccd1 vccd1 sky130_fd_sc_hd__fill_1
XFILLER_64_71 vssd1 vssd1 vccd1 vccd1 sky130_fd_sc_hd__decap_6
XFILLER_46_386 vssd1 vssd1 vccd1 vccd1 sky130_fd_sc_hd__decap_6
XFILLER_61_356 vssd1 vssd1 vccd1 vccd1 sky130_fd_sc_hd__decap_4
X_1940_ _1940_/CLK _1940_/D vssd1 vssd1 vccd1 vccd1 _1940_/Q sky130_fd_sc_hd__dfxtp_1
X_1871_ _1939_/CLK _1871_/D vssd1 vssd1 vccd1 vccd1 _1871_/Q sky130_fd_sc_hd__dfxtp_1
XANTENNA__1575__B1 _1568_/X vssd1 vssd1 vccd1 vccd1 sky130_fd_sc_hd__diode_2
XANTENNA__1327__B1 _1321_/X vssd1 vssd1 vccd1 vccd1 sky130_fd_sc_hd__diode_2
X_1305_ _1305_/A vssd1 vssd1 vccd1 vccd1 _1305_/X sky130_fd_sc_hd__clkbuf_4
X_1236_ _1235_/X _1224_/X _1227_/X _1801_/Q vssd1 vssd1 vccd1 vccd1 _1801_/D sky130_fd_sc_hd__a22o_1
X_1167_ _1206_/A _1167_/B vssd1 vssd1 vccd1 vccd1 _1167_/X sky130_fd_sc_hd__or2_1
XFILLER_64_161 vssd1 vssd1 vccd1 vccd1 sky130_fd_sc_hd__decap_4
XFILLER_64_150 vssd1 vssd1 vccd1 vccd1 sky130_fd_sc_hd__decap_4
XFILLER_37_375 vssd1 vssd1 vccd1 vccd1 sky130_fd_sc_hd__decap_4
XFILLER_52_312 vssd1 vccd1 vccd1 vssd1 sky130_ef_sc_hd__decap_12
X_1098_ _1064_/X _1149_/A _1092_/X _1097_/X vssd1 vssd1 vccd1 vccd1 _1098_/X sky130_fd_sc_hd__a31o_2
XFILLER_52_367 vssd1 vssd1 vccd1 vccd1 sky130_fd_sc_hd__decap_6
XFILLER_52_389 vssd1 vssd1 vccd1 vccd1 sky130_fd_sc_hd__decap_6
XANTENNA__1079__A _1095_/S vssd1 vssd1 vccd1 vccd1 sky130_fd_sc_hd__diode_2
XFILLER_20_253 vssd1 vssd1 vccd1 vccd1 sky130_fd_sc_hd__decap_3
XFILLER_20_297 vssd1 vssd1 vccd1 vccd1 sky130_fd_sc_hd__decap_4
XFILLER_4_419 vssd1 vssd1 vccd1 vccd1 sky130_fd_sc_hd__fill_1
XFILLER_69_49 vssd1 vssd1 vccd1 vccd1 sky130_fd_sc_hd__fill_1
XFILLER_75_437 vssd1 vssd1 vccd1 vccd1 sky130_fd_sc_hd__decap_4
XFILLER_18_75 vssd1 vssd1 vccd1 vccd1 sky130_fd_sc_hd__decap_8
XFILLER_28_397 vssd1 vccd1 vccd1 vssd1 sky130_ef_sc_hd__decap_12
XFILLER_43_323 vssd1 vssd1 vccd1 vccd1 sky130_fd_sc_hd__decap_6
XFILLER_70_197 vssd1 vssd1 vccd1 vccd1 sky130_fd_sc_hd__fill_2
XFILLER_7_257 vssd1 vssd1 vccd1 vccd1 sky130_fd_sc_hd__decap_4
XFILLER_7_246 vssd1 vssd1 vccd1 vccd1 sky130_fd_sc_hd__decap_4
XANTENNA__1557__B1 _1551_/X vssd1 vssd1 vccd1 vccd1 sky130_fd_sc_hd__diode_2
XTAP_507 vssd1 vccd1 sky130_fd_sc_hd__tapvpwrvgnd_1
XFILLER_3_485 vssd1 vssd1 vccd1 vccd1 sky130_fd_sc_hd__decap_6
XTAP_518 vssd1 vccd1 sky130_fd_sc_hd__tapvpwrvgnd_1
XTAP_529 vssd1 vccd1 sky130_fd_sc_hd__tapvpwrvgnd_1
XANTENNA__1309__B1 _1305_/X vssd1 vssd1 vccd1 vccd1 sky130_fd_sc_hd__diode_2
XFILLER_78_286 vssd1 vssd1 vccd1 vccd1 sky130_fd_sc_hd__decap_4
XFILLER_66_415 vssd1 vssd1 vccd1 vccd1 sky130_fd_sc_hd__decap_4
XANTENNA__1452__A _1784_/A vssd1 vssd1 vccd1 vccd1 sky130_fd_sc_hd__diode_2
X_2070_ _2081_/CLK _2070_/D vssd1 vssd1 vccd1 vccd1 _2070_/Q sky130_fd_sc_hd__dfxtp_1
XFILLER_75_70 vssd1 vssd1 vccd1 vccd1 sky130_fd_sc_hd__fill_1
X_1021_ _2096_/Q _2161_/Q _2135_/Q _2122_/Q _1008_/S _0968_/A vssd1 vssd1 vccd1 vccd1
+ _1021_/X sky130_fd_sc_hd__mux4_1
XFILLER_34_356 vssd1 vssd1 vccd1 vccd1 sky130_fd_sc_hd__decap_8
XFILLER_34_367 vssd1 vssd1 vccd1 vccd1 sky130_fd_sc_hd__decap_8
X_1923_ _2160_/CLK _1923_/D vssd1 vssd1 vccd1 vccd1 _1923_/Q sky130_fd_sc_hd__dfxtp_1
XANTENNA__1260__A2 _1253_/X vssd1 vssd1 vccd1 vccd1 sky130_fd_sc_hd__diode_2
X_1854_ _2177_/CLK _1854_/D vssd1 vssd1 vccd1 vccd1 _1854_/Q sky130_fd_sc_hd__dfxtp_1
XANTENNA__1627__A _1627_/A vssd1 vssd1 vccd1 vccd1 sky130_fd_sc_hd__diode_2
X_1785_ _1785_/A vssd1 vssd1 vccd1 vccd1 _1785_/X sky130_fd_sc_hd__clkbuf_4
XANTENNA__1720__B1 _1716_/X vssd1 vssd1 vccd1 vccd1 sky130_fd_sc_hd__diode_2
X_1219_ _1219_/A _1426_/A vssd1 vssd1 vccd1 vccd1 _1220_/D sky130_fd_sc_hd__or2b_1
XFILLER_65_470 vssd1 vssd1 vccd1 vccd1 sky130_fd_sc_hd__decap_6
XFILLER_13_507 vssd1 vssd1 vccd1 vccd1 sky130_fd_sc_hd__decap_8
XFILLER_80_495 vssd1 vssd1 vccd1 vccd1 sky130_fd_sc_hd__decap_4
XFILLER_71_39 vssd1 vssd1 vccd1 vccd1 sky130_fd_sc_hd__decap_4
XFILLER_40_359 vssd1 vssd1 vccd1 vccd1 sky130_fd_sc_hd__decap_4
XFILLER_52_197 vssd1 vssd1 vccd1 vccd1 sky130_fd_sc_hd__decap_4
XANTENNA__1787__B1 _1785_/X vssd1 vssd1 vccd1 vccd1 sky130_fd_sc_hd__diode_2
XANTENNA__1539__B1 _1534_/X vssd1 vssd1 vccd1 vccd1 sky130_fd_sc_hd__diode_2
XFILLER_20_43 vssd1 vssd1 vccd1 vccd1 sky130_fd_sc_hd__decap_4
XFILLER_0_433 vssd1 vssd1 vccd1 vccd1 sky130_fd_sc_hd__decap_4
XFILLER_0_455 vssd1 vssd1 vccd1 vccd1 sky130_fd_sc_hd__decap_4
XFILLER_0_477 vssd1 vssd1 vccd1 vccd1 sky130_fd_sc_hd__fill_2
XFILLER_29_63 vssd1 vssd1 vccd1 vccd1 sky130_fd_sc_hd__decap_6
XANTENNA_input18_A data_mem_addr[9] vssd1 vssd1 vccd1 vccd1 sky130_fd_sc_hd__diode_2
XFILLER_63_429 vssd1 vssd1 vccd1 vccd1 sky130_fd_sc_hd__decap_8
XFILLER_71_451 vssd1 vccd1 vccd1 vssd1 sky130_ef_sc_hd__decap_12
XFILLER_16_389 vssd1 vssd1 vccd1 vccd1 sky130_fd_sc_hd__decap_4
XANTENNA__1490__A2 _1483_/X vssd1 vssd1 vccd1 vccd1 sky130_fd_sc_hd__diode_2
XFILLER_31_337 vssd1 vssd1 vccd1 vccd1 sky130_fd_sc_hd__fill_1
XANTENNA__1778__B1 _1768_/X vssd1 vssd1 vccd1 vccd1 sky130_fd_sc_hd__diode_2
XANTENNA__1242__A2 _1224_/X vssd1 vssd1 vccd1 vccd1 sky130_fd_sc_hd__diode_2
X_1570_ _1405_/X _1566_/X _1568_/X _2015_/Q vssd1 vssd1 vccd1 vccd1 _2015_/D sky130_fd_sc_hd__a22o_1
XANTENNA__1447__A _1447_/A vssd1 vssd1 vccd1 vccd1 sky130_fd_sc_hd__diode_2
XANTENNA_output86_A _2206_/X vssd1 vssd1 vccd1 vccd1 sky130_fd_sc_hd__diode_2
XFILLER_6_89 vssd1 vssd1 vccd1 vccd1 sky130_fd_sc_hd__decap_4
XTAP_304 vssd1 vccd1 sky130_fd_sc_hd__tapvpwrvgnd_1
XTAP_315 vssd1 vccd1 sky130_fd_sc_hd__tapvpwrvgnd_1
XTAP_326 vssd1 vccd1 sky130_fd_sc_hd__tapvpwrvgnd_1
XTAP_337 vssd1 vccd1 sky130_fd_sc_hd__tapvpwrvgnd_1
XTAP_348 vssd1 vccd1 sky130_fd_sc_hd__tapvpwrvgnd_1
XTAP_359 vssd1 vccd1 sky130_fd_sc_hd__tapvpwrvgnd_1
XFILLER_13_3 vssd1 vccd1 vccd1 vssd1 sky130_ef_sc_hd__decap_12
X_2122_ _2166_/CLK _2122_/D vssd1 vssd1 vccd1 vccd1 _2122_/Q sky130_fd_sc_hd__dfxtp_1
XANTENNA__1702__B1 _1699_/X vssd1 vssd1 vccd1 vccd1 sky130_fd_sc_hd__diode_2
XFILLER_39_459 vssd1 vssd1 vccd1 vccd1 sky130_fd_sc_hd__fill_1
XFILLER_26_109 vssd1 vssd1 vccd1 vccd1 sky130_fd_sc_hd__decap_4
X_2053_ _2148_/CLK _2053_/D vssd1 vssd1 vccd1 vccd1 _2053_/Q sky130_fd_sc_hd__dfxtp_1
XFILLER_54_429 vssd1 vssd1 vccd1 vccd1 sky130_fd_sc_hd__decap_6
X_1004_ _1004_/A _1004_/B vssd1 vssd1 vccd1 vccd1 _1004_/X sky130_fd_sc_hd__or2_1
XFILLER_22_304 vssd1 vssd1 vccd1 vccd1 sky130_fd_sc_hd__decap_4
XANTENNA__1769__B1 _1768_/X vssd1 vssd1 vccd1 vccd1 sky130_fd_sc_hd__diode_2
XANTENNA__0960__S _1010_/S vssd1 vssd1 vccd1 vccd1 sky130_fd_sc_hd__diode_2
X_1906_ _1963_/CLK _1906_/D vssd1 vssd1 vccd1 vccd1 _1906_/Q sky130_fd_sc_hd__dfxtp_1
X_1837_ _1838_/CLK _1837_/D vssd1 vssd1 vccd1 vccd1 _1837_/Q sky130_fd_sc_hd__dfxtp_1
XANTENNA__0992__A1 _1009_/A vssd1 vssd1 vccd1 vccd1 sky130_fd_sc_hd__diode_2
X_1768_ _1768_/A vssd1 vssd1 vccd1 vccd1 _1768_/X sky130_fd_sc_hd__clkbuf_4
X_1699_ _1699_/A vssd1 vssd1 vccd1 vccd1 _1699_/X sky130_fd_sc_hd__buf_4
XTAP_871 vssd1 vccd1 sky130_fd_sc_hd__tapvpwrvgnd_1
XTAP_860 vssd1 vccd1 sky130_fd_sc_hd__tapvpwrvgnd_1
XTAP_893 vssd1 vccd1 sky130_fd_sc_hd__tapvpwrvgnd_1
XTAP_882 vssd1 vccd1 sky130_fd_sc_hd__tapvpwrvgnd_1
XFILLER_82_16 vssd1 vssd1 vccd1 vccd1 sky130_fd_sc_hd__decap_4
XFILLER_40_101 vssd1 vssd1 vccd1 vccd1 sky130_fd_sc_hd__decap_4
XANTENNA__1472__A2 _1467_/X vssd1 vssd1 vccd1 vccd1 sky130_fd_sc_hd__diode_2
XFILLER_15_65 vssd1 vssd1 vccd1 vccd1 sky130_fd_sc_hd__fill_1
XFILLER_5_503 vssd1 vssd1 vccd1 vccd1 sky130_fd_sc_hd__fill_1
Xoutput75 _1001_/X vssd1 vssd1 vccd1 vccd1 data_mem_addr_paged[17] sky130_fd_sc_hd__buf_2
Xoutput86 _2206_/X vssd1 vssd1 vccd1 vccd1 data_mem_addr_paged[5] sky130_fd_sc_hd__buf_2
Xoutput97 _1118_/X vssd1 vssd1 vccd1 vccd1 fetch_wb_adr_paged[15] sky130_fd_sc_hd__buf_2
XFILLER_44_484 vssd1 vssd1 vccd1 vccd1 sky130_fd_sc_hd__decap_4
XFILLER_72_71 vssd1 vssd1 vccd1 vccd1 sky130_fd_sc_hd__decap_6
XFILLER_71_281 vssd1 vssd1 vccd1 vccd1 sky130_fd_sc_hd__decap_6
XFILLER_71_270 vssd1 vssd1 vccd1 vccd1 sky130_fd_sc_hd__decap_8
XANTENNA__1463__A2 _1451_/X vssd1 vssd1 vccd1 vccd1 sky130_fd_sc_hd__diode_2
XFILLER_31_123 vssd1 vssd1 vccd1 vccd1 sky130_fd_sc_hd__decap_8
XFILLER_31_167 vssd1 vssd1 vccd1 vccd1 sky130_fd_sc_hd__fill_1
XANTENNA_clkbuf_leaf_25_i_clk_A clkbuf_2_3__f_i_clk/X vssd1 vssd1 vccd1 vccd1 sky130_fd_sc_hd__diode_2
XFILLER_82_6 vssd1 vssd1 vccd1 vccd1 sky130_fd_sc_hd__decap_4
XFILLER_8_363 vssd1 vssd1 vccd1 vccd1 sky130_fd_sc_hd__fill_1
X_1622_ _1600_/X _1619_/X _1621_/X _2053_/Q vssd1 vssd1 vccd1 vccd1 _2053_/D sky130_fd_sc_hd__a22o_1
XANTENNA__0974__A1 _1026_/A vssd1 vssd1 vccd1 vccd1 sky130_fd_sc_hd__diode_2
XANTENNA__1074__S1 _1096_/A vssd1 vssd1 vccd1 vccd1 sky130_fd_sc_hd__diode_2
X_1553_ _1405_/X _1549_/X _1551_/X _2002_/Q vssd1 vssd1 vccd1 vccd1 _2002_/D sky130_fd_sc_hd__a22o_1
X_1484_ _1784_/A _1484_/B vssd1 vssd1 vccd1 vccd1 _1485_/A sky130_fd_sc_hd__nor2_1
XTAP_167 vssd1 vccd1 sky130_fd_sc_hd__tapvpwrvgnd_1
XTAP_189 vssd1 vccd1 sky130_fd_sc_hd__tapvpwrvgnd_1
XTAP_178 vssd1 vccd1 sky130_fd_sc_hd__tapvpwrvgnd_1
XFILLER_39_223 vssd1 vssd1 vccd1 vccd1 sky130_fd_sc_hd__fill_1
X_2105_ _2119_/CLK _2105_/D vssd1 vssd1 vccd1 vccd1 _2105_/Q sky130_fd_sc_hd__dfxtp_1
XFILLER_27_429 vssd1 vccd1 vccd1 vssd1 sky130_ef_sc_hd__decap_12
XFILLER_39_289 vssd1 vssd1 vccd1 vccd1 sky130_fd_sc_hd__decap_4
XFILLER_54_204 vssd1 vssd1 vccd1 vccd1 sky130_fd_sc_hd__decap_4
X_2036_ _2154_/CLK _2036_/D vssd1 vssd1 vccd1 vccd1 _2036_/Q sky130_fd_sc_hd__dfxtp_1
XFILLER_35_473 vssd1 vssd1 vccd1 vccd1 sky130_fd_sc_hd__fill_1
XANTENNA__1454__A2 _1451_/X vssd1 vssd1 vccd1 vccd1 sky130_fd_sc_hd__diode_2
XFILLER_22_101 vssd1 vssd1 vccd1 vccd1 sky130_fd_sc_hd__decap_8
XFILLER_50_421 vssd1 vssd1 vccd1 vccd1 sky130_fd_sc_hd__decap_3
XFILLER_22_189 vssd1 vssd1 vccd1 vccd1 sky130_fd_sc_hd__decap_6
XANTENNA__1087__A _1123_/A vssd1 vssd1 vccd1 vccd1 sky130_fd_sc_hd__diode_2
XANTENNA__1465__D_N _1365_/A vssd1 vssd1 vccd1 vccd1 sky130_fd_sc_hd__diode_2
XFILLER_77_27 vssd1 vssd1 vccd1 vccd1 sky130_fd_sc_hd__decap_6
XANTENNA__1390__A1 _1233_/X vssd1 vssd1 vccd1 vccd1 sky130_fd_sc_hd__diode_2
XTAP_690 vssd1 vccd1 sky130_fd_sc_hd__tapvpwrvgnd_1
XFILLER_18_407 vssd1 vssd1 vccd1 vccd1 sky130_fd_sc_hd__decap_4
XFILLER_73_513 vssd1 vssd1 vccd1 vccd1 sky130_fd_sc_hd__decap_3
XANTENNA__1693__A2 _1681_/B vssd1 vssd1 vccd1 vccd1 sky130_fd_sc_hd__diode_2
XANTENNA__1550__A _1784_/A vssd1 vssd1 vccd1 vccd1 sky130_fd_sc_hd__diode_2
XFILLER_26_31 vssd1 vssd1 vccd1 vccd1 sky130_fd_sc_hd__decap_8
XFILLER_53_281 vssd1 vssd1 vccd1 vccd1 sky130_fd_sc_hd__fill_2
XFILLER_13_167 vssd1 vssd1 vccd1 vccd1 sky130_fd_sc_hd__fill_1
XFILLER_41_465 vssd1 vssd1 vccd1 vccd1 sky130_fd_sc_hd__decap_4
XFILLER_13_189 vssd1 vssd1 vccd1 vccd1 sky130_fd_sc_hd__decap_4
XFILLER_9_138 vssd1 vssd1 vccd1 vccd1 sky130_fd_sc_hd__decap_6
XFILLER_42_85 vssd1 vssd1 vccd1 vccd1 sky130_fd_sc_hd__decap_8
XFILLER_5_311 vssd1 vssd1 vccd1 vccd1 sky130_fd_sc_hd__decap_4
XFILLER_5_344 vssd1 vssd1 vccd1 vccd1 sky130_fd_sc_hd__decap_4
XFILLER_3_57 vssd1 vssd1 vccd1 vccd1 sky130_fd_sc_hd__decap_4
XFILLER_3_68 vssd1 vssd1 vccd1 vccd1 sky130_fd_sc_hd__decap_4
XFILLER_64_513 vssd1 vssd1 vccd1 vccd1 sky130_fd_sc_hd__decap_3
XANTENNA__1684__A2 _1680_/X vssd1 vssd1 vccd1 vccd1 sky130_fd_sc_hd__diode_2
XFILLER_36_248 vssd1 vssd1 vccd1 vccd1 sky130_fd_sc_hd__decap_4
XANTENNA__1436__A2 _1431_/X vssd1 vssd1 vccd1 vccd1 sky130_fd_sc_hd__diode_2
XFILLER_80_3 vssd1 vssd1 vccd1 vccd1 sky130_fd_sc_hd__decap_4
X_0984_ _1004_/A _0984_/B vssd1 vssd1 vccd1 vccd1 _0984_/X sky130_fd_sc_hd__or2_1
XANTENNA__1047__S1 input7/X vssd1 vssd1 vccd1 vccd1 sky130_fd_sc_hd__diode_2
X_1605_ _1600_/X _1602_/X _1604_/X _2040_/Q vssd1 vssd1 vccd1 vccd1 _2040_/D sky130_fd_sc_hd__a22o_1
X_1536_ _1405_/X _1532_/X _1534_/X _1989_/Q vssd1 vssd1 vccd1 vccd1 _1989_/D sky130_fd_sc_hd__a22o_1
XANTENNA__1635__A _1635_/A vssd1 vssd1 vccd1 vccd1 sky130_fd_sc_hd__diode_2
XANTENNA__1372__A1 _1231_/X vssd1 vssd1 vccd1 vccd1 sky130_fd_sc_hd__diode_2
X_1467_ _1467_/A vssd1 vssd1 vccd1 vccd1 _1467_/X sky130_fd_sc_hd__clkbuf_4
X_1398_ _1600_/A vssd1 vssd1 vccd1 vccd1 _1398_/X sky130_fd_sc_hd__buf_4
XANTENNA__1675__A2 _1663_/X vssd1 vssd1 vccd1 vccd1 sky130_fd_sc_hd__diode_2
XFILLER_55_513 vssd1 vssd1 vccd1 vccd1 sky130_fd_sc_hd__decap_3
XFILLER_82_343 vssd1 vssd1 vccd1 vccd1 sky130_fd_sc_hd__decap_4
XFILLER_82_321 vssd1 vssd1 vccd1 vccd1 sky130_fd_sc_hd__decap_4
XFILLER_82_365 vssd1 vssd1 vccd1 vccd1 sky130_fd_sc_hd__decap_4
XFILLER_70_505 vssd1 vssd1 vccd1 vccd1 sky130_fd_sc_hd__decap_4
X_2019_ _2159_/CLK _2019_/D vssd1 vssd1 vccd1 vccd1 _2019_/Q sky130_fd_sc_hd__dfxtp_1