* NGSPICE file created from uprj_w_const.ext - technology: sky130B

* Black-box entry subcircuit for sky130_fd_sc_hd__tapvpwrvgnd_1 abstract view
.subckt sky130_fd_sc_hd__tapvpwrvgnd_1 VGND VPWR
.ends

* Black-box entry subcircuit for sky130_fd_sc_hd__decap_6 abstract view
.subckt sky130_fd_sc_hd__decap_6 VGND VNB VPB VPWR
.ends

* Black-box entry subcircuit for sky130_fd_sc_hd__decap_8 abstract view
.subckt sky130_fd_sc_hd__decap_8 VGND VNB VPB VPWR
.ends

* Black-box entry subcircuit for sky130_fd_sc_hd__fill_1 abstract view
.subckt sky130_fd_sc_hd__fill_1 VGND VNB VPB VPWR
.ends

* Black-box entry subcircuit for sky130_ef_sc_hd__decap_12 abstract view
.subckt sky130_ef_sc_hd__decap_12 VGND VPWR VPB VNB
.ends

* Black-box entry subcircuit for sky130_fd_sc_hd__decap_4 abstract view
.subckt sky130_fd_sc_hd__decap_4 VGND VNB VPB VPWR
.ends

* Black-box entry subcircuit for sky130_fd_sc_hd__fill_2 abstract view
.subckt sky130_fd_sc_hd__fill_2 VGND VNB VPB VPWR
.ends

* Black-box entry subcircuit for sky130_fd_sc_hd__buf_2 abstract view
.subckt sky130_fd_sc_hd__buf_2 A VGND VNB VPB VPWR X
.ends

* Black-box entry subcircuit for sky130_fd_sc_hd__decap_3 abstract view
.subckt sky130_fd_sc_hd__decap_3 VGND VNB VPB VPWR
.ends

* Black-box entry subcircuit for sky130_fd_sc_hd__diode_2 abstract view
.subckt sky130_fd_sc_hd__diode_2 DIODE VGND VNB VPB VPWR
.ends

* Black-box entry subcircuit for sky130_fd_sc_hd__clkbuf_1 abstract view
.subckt sky130_fd_sc_hd__clkbuf_1 A VGND VNB VPB VPWR X
.ends

* Black-box entry subcircuit for sky130_fd_sc_hd__conb_1 abstract view
.subckt sky130_fd_sc_hd__conb_1 VGND VNB VPB VPWR HI LO
.ends

* Black-box entry subcircuit for sky130_fd_sc_hd__buf_6 abstract view
.subckt sky130_fd_sc_hd__buf_6 A VGND VNB VPB VPWR X
.ends

* Black-box entry subcircuit for sky130_fd_sc_hd__dlymetal6s2s_1 abstract view
.subckt sky130_fd_sc_hd__dlymetal6s2s_1 A VGND VNB VPB VPWR X
.ends

.subckt uprj_w_const b0_drv[0] b0_drv[10] b0_drv[11] b0_drv[12] b0_drv[13] b0_drv[14]
+ b0_drv[15] b0_drv[16] b0_drv[17] b0_drv[18] b0_drv[19] b0_drv[1] b0_drv[20] b0_drv[21]
+ b0_drv[22] b0_drv[23] b0_drv[24] b0_drv[25] b0_drv[26] b0_drv[27] b0_drv[28] b0_drv[29]
+ b0_drv[2] b0_drv[30] b0_drv[31] b0_drv[32] b0_drv[33] b0_drv[34] b0_drv[35] b0_drv[36]
+ b0_drv[37] b0_drv[38] b0_drv[39] b0_drv[3] b0_drv[40] b0_drv[41] b0_drv[42] b0_drv[43]
+ b0_drv[44] b0_drv[45] b0_drv[46] b0_drv[47] b0_drv[48] b0_drv[49] b0_drv[4] b0_drv[50]
+ b0_drv[51] b0_drv[52] b0_drv[53] b0_drv[54] b0_drv[55] b0_drv[56] b0_drv[57] b0_drv[58]
+ b0_drv[59] b0_drv[5] b0_drv[60] b0_drv[61] b0_drv[62] b0_drv[63] b0_drv[64] b0_drv[65]
+ b0_drv[66] b0_drv[67] b0_drv[68] b0_drv[69] b0_drv[6] b0_drv[70] b0_drv[71] b0_drv[72]
+ b0_drv[73] b0_drv[74] b0_drv[75] b0_drv[76] b0_drv[77] b0_drv[78] b0_drv[79] b0_drv[7]
+ b0_drv[80] b0_drv[81] b0_drv[82] b0_drv[8] b0_drv[9] cw_clk_i cw_clk_o cw_dir cw_dir_b_o
+ cw_dir_b_oo cw_dir_o cw_req_i cw_req_o cw_rst_i cw_rst_o io_oeb_15_0[0] io_oeb_15_0[10]
+ io_oeb_15_0[11] io_oeb_15_0[12] io_oeb_15_0[13] io_oeb_15_0[14] io_oeb_15_0[15]
+ io_oeb_15_0[1] io_oeb_15_0[2] io_oeb_15_0[3] io_oeb_15_0[4] io_oeb_15_0[5] io_oeb_15_0[6]
+ io_oeb_15_0[7] io_oeb_15_0[8] io_oeb_15_0[9] io_oeb_18_16[0] io_oeb_18_16[1] io_oeb_18_16[2]
+ io_oeb_20_19[0] io_oeb_20_19[1] io_oeb_21 io_oeb_22 io_out[0] io_out[10] io_out[11]
+ io_out[12] io_out[13] io_out[14] io_out[1] io_out[2] io_out[3] io_out[4] io_out[5]
+ io_out[6] io_out[7] io_out[8] io_out[9] io_out_20_19[0] io_out_20_19[1] io_out_22
+ la_data_out_16_17[0] la_data_out_16_17[1] la_data_out_21 la_data_out_37_36[0] la_data_out_37_36[1]
+ la_data_out_77_62[0] la_data_out_77_62[10] la_data_out_77_62[11] la_data_out_77_62[12]
+ la_data_out_77_62[13] la_data_out_77_62[14] la_data_out_77_62[15] la_data_out_77_62[1]
+ la_data_out_77_62[2] la_data_out_77_62[3] la_data_out_77_62[4] la_data_out_77_62[5]
+ la_data_out_77_62[6] la_data_out_77_62[7] la_data_out_77_62[8] la_data_out_77_62[9]
+ la_data_out_97_95[0] la_data_out_97_95[1] la_data_out_97_95[2] la_datb_i[0] la_datb_i[1]
+ la_datb_i[2] la_datb_o[0] la_datb_o[1] la_datb_o[2] oeb_out[0] oeb_out[10] oeb_out[11]
+ oeb_out[12] oeb_out[13] oeb_out[14] oeb_out[1] oeb_out[2] oeb_out[3] oeb_out[4]
+ oeb_out[5] oeb_out[6] oeb_out[7] oeb_out[8] oeb_out[9] vccd1 vssd1
XTAP_177 vssd1 vccd1 sky130_fd_sc_hd__tapvpwrvgnd_1
XTAP_188 vssd1 vccd1 sky130_fd_sc_hd__tapvpwrvgnd_1
XTAP_199 vssd1 vccd1 sky130_fd_sc_hd__tapvpwrvgnd_1
XFILLER_22_133 vssd1 vssd1 vccd1 vccd1 sky130_fd_sc_hd__decap_6
XFILLER_45_225 vssd1 vssd1 vccd1 vccd1 sky130_fd_sc_hd__decap_8
XFILLER_13_111 vssd1 vssd1 vccd1 vccd1 sky130_fd_sc_hd__fill_1
XFILLER_26_41 vssd1 vccd1 vccd1 vssd1 sky130_ef_sc_hd__decap_12
XFILLER_26_85 vssd1 vccd1 vccd1 vssd1 sky130_ef_sc_hd__decap_12
XFILLER_9_137 vssd1 vccd1 vccd1 vssd1 sky130_ef_sc_hd__decap_12
XFILLER_27_225 vssd1 vccd1 vccd1 vssd1 sky130_ef_sc_hd__decap_12
XFILLER_12_65 vssd1 vccd1 vccd1 vssd1 sky130_ef_sc_hd__decap_12
XFILLER_41_261 vssd1 vccd1 vccd1 vssd1 sky130_ef_sc_hd__decap_12
XFILLER_26_280 vssd1 vssd1 vccd1 vccd1 sky130_fd_sc_hd__decap_4
XFILLER_33_217 vssd1 vssd1 vccd1 vccd1 sky130_fd_sc_hd__decap_6
XFILLER_15_217 vssd1 vssd1 vccd1 vccd1 sky130_fd_sc_hd__decap_6
XFILLER_30_209 vssd1 vccd1 vccd1 vssd1 sky130_ef_sc_hd__decap_12
XFILLER_23_42 vssd1 vccd1 vccd1 vssd1 sky130_ef_sc_hd__decap_12
XFILLER_2_165 vssd1 vccd1 vccd1 vssd1 sky130_ef_sc_hd__decap_12
XFILLER_2_121 vssd1 vccd1 vccd1 vssd1 sky130_ef_sc_hd__decap_12
XFILLER_0_13 vssd1 vssd1 vccd1 vccd1 sky130_fd_sc_hd__fill_1
XFILLER_0_24 vssd1 vssd1 vccd1 vccd1 sky130_fd_sc_hd__decap_4
XFILLER_0_57 vssd1 vssd1 vccd1 vccd1 sky130_fd_sc_hd__fill_2
XFILLER_12_209 vssd1 vccd1 vccd1 vssd1 sky130_ef_sc_hd__decap_12
XFILLER_20_253 vssd1 vccd1 vccd1 vssd1 sky130_ef_sc_hd__decap_12
XFILLER_18_53 vssd1 vccd1 vccd1 vssd1 sky130_ef_sc_hd__decap_12
XFILLER_18_97 vssd1 vccd1 vccd1 vssd1 sky130_ef_sc_hd__decap_12
XFILLER_34_41 vssd1 vccd1 vccd1 vssd1 sky130_ef_sc_hd__decap_12
XFILLER_34_85 vssd1 vccd1 vccd1 vssd1 sky130_ef_sc_hd__decap_12
XFILLER_7_279 vssd1 vssd1 vccd1 vccd1 sky130_fd_sc_hd__fill_1
XFILLER_38_139 vssd1 vssd1 vccd1 vccd1 sky130_fd_sc_hd__fill_1
XFILLER_15_6 vssd1 vccd1 vccd1 vssd1 sky130_ef_sc_hd__decap_12
XFILLER_46_194 vssd1 vssd1 vccd1 vccd1 sky130_fd_sc_hd__fill_2
XFILLER_46_172 vssd1 vssd1 vccd1 vccd1 sky130_fd_sc_hd__decap_4
XFILLER_44_109 vssd1 vccd1 vccd1 vssd1 sky130_ef_sc_hd__decap_12
XFILLER_37_161 vssd1 vssd1 vccd1 vccd1 sky130_fd_sc_hd__decap_6
XFILLER_20_65 vssd1 vccd1 vccd1 vssd1 sky130_ef_sc_hd__decap_12
XFILLER_29_30 vssd1 vccd1 vccd1 vssd1 sky130_ef_sc_hd__decap_12
XTAP_337 vssd1 vccd1 sky130_fd_sc_hd__tapvpwrvgnd_1
XTAP_326 vssd1 vccd1 sky130_fd_sc_hd__tapvpwrvgnd_1
XTAP_315 vssd1 vccd1 sky130_fd_sc_hd__tapvpwrvgnd_1
XTAP_304 vssd1 vccd1 sky130_fd_sc_hd__tapvpwrvgnd_1
XFILLER_13_3 vssd1 vccd1 vccd1 vssd1 sky130_ef_sc_hd__decap_12
XFILLER_19_161 vssd1 vssd1 vccd1 vccd1 sky130_fd_sc_hd__decap_6
XFILLER_26_109 vssd1 vccd1 vccd1 vssd1 sky130_ef_sc_hd__decap_12
XFILLER_34_153 vssd1 vccd1 vccd1 vssd1 sky130_ef_sc_hd__decap_12
XFILLER_34_197 vssd1 vccd1 vccd1 vssd1 sky130_ef_sc_hd__decap_12
XFILLER_40_189 vssd1 vssd1 vccd1 vccd1 sky130_fd_sc_hd__decap_6
XFILLER_15_54 vssd1 vssd1 vccd1 vccd1 sky130_fd_sc_hd__fill_2
XFILLER_31_42 vssd1 vccd1 vccd1 vssd1 sky130_ef_sc_hd__decap_12
Xoutput20 _159_/X vssd1 vssd1 vccd1 vccd1 io_oeb_15_0[4] sky130_fd_sc_hd__buf_2
Xoutput7 _152_/X vssd1 vssd1 vccd1 vccd1 cw_dir_b_oo sky130_fd_sc_hd__buf_2
XFILLER_0_263 vssd1 vssd1 vccd1 vccd1 sky130_fd_sc_hd__decap_4
XFILLER_16_153 vssd1 vccd1 vccd1 vssd1 sky130_ef_sc_hd__decap_12
XFILLER_16_197 vssd1 vccd1 vccd1 vssd1 sky130_ef_sc_hd__decap_12
XFILLER_31_167 vssd1 vssd1 vccd1 vccd1 sky130_fd_sc_hd__fill_1
XFILLER_39_223 vssd1 vssd1 vccd1 vccd1 sky130_fd_sc_hd__fill_1
XTAP_134 vssd1 vccd1 sky130_fd_sc_hd__tapvpwrvgnd_1
XTAP_123 vssd1 vccd1 sky130_fd_sc_hd__tapvpwrvgnd_1
XTAP_112 vssd1 vccd1 sky130_fd_sc_hd__tapvpwrvgnd_1
XTAP_101 vssd1 vccd1 sky130_fd_sc_hd__tapvpwrvgnd_1
XTAP_145 vssd1 vccd1 sky130_fd_sc_hd__tapvpwrvgnd_1
XTAP_156 vssd1 vccd1 sky130_fd_sc_hd__tapvpwrvgnd_1
XTAP_167 vssd1 vccd1 sky130_fd_sc_hd__tapvpwrvgnd_1
XTAP_178 vssd1 vccd1 sky130_fd_sc_hd__tapvpwrvgnd_1
XTAP_189 vssd1 vccd1 sky130_fd_sc_hd__tapvpwrvgnd_1
XFILLER_39_289 vssd1 vssd1 vccd1 vccd1 sky130_fd_sc_hd__decap_3
XFILLER_22_145 vssd1 vssd1 vccd1 vccd1 sky130_fd_sc_hd__decap_4
XFILLER_45_237 vssd1 vssd1 vccd1 vccd1 sky130_fd_sc_hd__decap_4
XFILLER_9_105 vssd1 vssd1 vccd1 vccd1 sky130_fd_sc_hd__decap_6
XFILLER_13_167 vssd1 vssd1 vccd1 vccd1 sky130_fd_sc_hd__fill_1
XFILLER_26_53 vssd1 vccd1 vccd1 vssd1 sky130_ef_sc_hd__decap_12
XFILLER_26_97 vssd1 vccd1 vccd1 vssd1 sky130_ef_sc_hd__decap_12
XFILLER_42_85 vssd1 vccd1 vccd1 vssd1 sky130_ef_sc_hd__decap_12
XFILLER_42_41 vssd1 vccd1 vccd1 vssd1 sky130_ef_sc_hd__decap_12
XFILLER_9_149 vssd1 vccd1 vccd1 vssd1 sky130_ef_sc_hd__decap_12
XFILLER_3_57 vssd1 vccd1 vccd1 vssd1 sky130_ef_sc_hd__decap_12
XFILLER_3_13 vssd1 vssd1 vccd1 vccd1 sky130_fd_sc_hd__decap_4
XFILLER_35_281 vssd1 vssd1 vccd1 vccd1 sky130_fd_sc_hd__decap_8
XFILLER_27_237 vssd1 vccd1 vccd1 vssd1 sky130_ef_sc_hd__decap_12
XFILLER_12_77 vssd1 vssd1 vccd1 vccd1 sky130_fd_sc_hd__decap_6
XFILLER_41_295 vssd1 vssd1 vccd1 vccd1 sky130_fd_sc_hd__decap_4
XFILLER_41_273 vssd1 vssd1 vccd1 vccd1 sky130_fd_sc_hd__decap_6
XFILLER_17_281 vssd1 vssd1 vccd1 vccd1 sky130_fd_sc_hd__decap_8
XFILLER_32_251 vssd1 vssd1 vccd1 vccd1 sky130_fd_sc_hd__fill_1
XFILLER_32_295 vssd1 vssd1 vccd1 vccd1 sky130_fd_sc_hd__decap_4
XFILLER_23_54 vssd1 vssd1 vccd1 vccd1 sky130_fd_sc_hd__fill_2
XFILLER_23_262 vssd1 vccd1 vccd1 vssd1 sky130_ef_sc_hd__decap_12
XFILLER_23_295 vssd1 vssd1 vccd1 vccd1 sky130_fd_sc_hd__decap_4
XFILLER_2_177 vssd1 vccd1 vccd1 vssd1 sky130_ef_sc_hd__decap_12
XFILLER_2_133 vssd1 vssd1 vccd1 vccd1 sky130_fd_sc_hd__decap_6
XFILLER_14_251 vssd1 vssd1 vccd1 vccd1 sky130_fd_sc_hd__fill_1
XFILLER_14_295 vssd1 vssd1 vccd1 vccd1 sky130_fd_sc_hd__decap_4
XFILLER_20_221 vssd1 vccd1 vccd1 vssd1 sky130_ef_sc_hd__decap_12
XFILLER_20_265 vssd1 vccd1 vccd1 vssd1 sky130_ef_sc_hd__decap_12
XFILLER_18_65 vssd1 vccd1 vccd1 vssd1 sky130_ef_sc_hd__decap_12
XFILLER_7_225 vssd1 vccd1 vccd1 vssd1 sky130_ef_sc_hd__decap_12
XFILLER_34_53 vssd1 vccd1 vccd1 vssd1 sky130_ef_sc_hd__decap_12
XFILLER_34_97 vssd1 vccd1 vccd1 vssd1 sky130_ef_sc_hd__decap_12
XFILLER_1_90 vssd1 vccd1 vccd1 vssd1 sky130_ef_sc_hd__decap_12
XFILLER_20_77 vssd1 vssd1 vccd1 vccd1 sky130_fd_sc_hd__decap_6
XFILLER_29_42 vssd1 vccd1 vccd1 vssd1 sky130_ef_sc_hd__decap_12
XFILLER_45_52 vssd1 vssd1 vccd1 vccd1 sky130_fd_sc_hd__decap_4
XFILLER_45_41 vssd1 vssd1 vccd1 vccd1 sky130_fd_sc_hd__fill_1
XFILLER_28_195 vssd1 vssd1 vccd1 vccd1 sky130_fd_sc_hd__fill_1
XTAP_338 vssd1 vccd1 sky130_fd_sc_hd__tapvpwrvgnd_1
XTAP_327 vssd1 vccd1 sky130_fd_sc_hd__tapvpwrvgnd_1
XTAP_316 vssd1 vccd1 sky130_fd_sc_hd__tapvpwrvgnd_1
XTAP_305 vssd1 vccd1 sky130_fd_sc_hd__tapvpwrvgnd_1
XFILLER_3_261 vssd1 vccd1 vccd1 vssd1 sky130_ef_sc_hd__decap_12
XFILLER_34_121 vssd1 vccd1 vccd1 vssd1 sky130_ef_sc_hd__decap_12
XFILLER_34_165 vssd1 vccd1 vccd1 vssd1 sky130_ef_sc_hd__decap_12
XFILLER_31_54 vssd1 vssd1 vccd1 vccd1 sky130_fd_sc_hd__fill_2
Xoutput21 _160_/X vssd1 vssd1 vccd1 vccd1 io_oeb_15_0[5] sky130_fd_sc_hd__buf_2
Xoutput10 _155_/X vssd1 vssd1 vccd1 vccd1 io_oeb_15_0[0] sky130_fd_sc_hd__buf_2
Xoutput8 _153_/X vssd1 vssd1 vccd1 vccd1 cw_req_o sky130_fd_sc_hd__buf_2
XFILLER_16_121 vssd1 vccd1 vccd1 vssd1 sky130_ef_sc_hd__decap_12
XFILLER_16_165 vssd1 vccd1 vccd1 vssd1 sky130_ef_sc_hd__decap_12
XFILLER_31_113 vssd1 vccd1 vccd1 vssd1 sky130_ef_sc_hd__decap_12
XTAP_135 vssd1 vccd1 sky130_fd_sc_hd__tapvpwrvgnd_1
XTAP_124 vssd1 vccd1 sky130_fd_sc_hd__tapvpwrvgnd_1
XTAP_113 vssd1 vccd1 sky130_fd_sc_hd__tapvpwrvgnd_1
XTAP_102 vssd1 vccd1 sky130_fd_sc_hd__tapvpwrvgnd_1
XTAP_146 vssd1 vccd1 sky130_fd_sc_hd__tapvpwrvgnd_1
XTAP_157 vssd1 vccd1 sky130_fd_sc_hd__tapvpwrvgnd_1
XTAP_168 vssd1 vccd1 sky130_fd_sc_hd__tapvpwrvgnd_1
XTAP_179 vssd1 vccd1 sky130_fd_sc_hd__tapvpwrvgnd_1
XFILLER_39_279 vssd1 vssd1 vccd1 vccd1 sky130_fd_sc_hd__fill_1
XFILLER_42_53 vssd1 vccd1 vccd1 vssd1 sky130_ef_sc_hd__decap_12
XFILLER_13_113 vssd1 vccd1 vccd1 vssd1 sky130_ef_sc_hd__decap_12
XFILLER_26_65 vssd1 vccd1 vccd1 vssd1 sky130_ef_sc_hd__decap_12
XFILLER_42_97 vssd1 vccd1 vccd1 vssd1 sky130_ef_sc_hd__decap_12
XFILLER_3_69 vssd1 vccd1 vccd1 vssd1 sky130_ef_sc_hd__decap_12
XFILLER_27_205 vssd1 vccd1 vccd1 vssd1 sky130_ef_sc_hd__decap_12
XFILLER_27_249 vssd1 vccd1 vccd1 vssd1 sky130_ef_sc_hd__decap_12
XFILLER_6_109 vssd1 vccd1 vccd1 vssd1 sky130_ef_sc_hd__decap_12
XFILLER_5_6 vssd1 vccd1 vccd1 vssd1 sky130_ef_sc_hd__decap_12
XFILLER_37_20 vssd1 vccd1 vccd1 vssd1 sky130_ef_sc_hd__decap_12
XFILLER_41_285 vssd1 vssd1 vccd1 vccd1 sky130_fd_sc_hd__fill_1
XFILLER_45_7 vssd1 vssd1 vccd1 vccd1 sky130_fd_sc_hd__decap_4
XFILLER_23_274 vssd1 vssd1 vccd1 vccd1 sky130_fd_sc_hd__decap_6
XFILLER_23_285 vssd1 vssd1 vccd1 vccd1 sky130_fd_sc_hd__fill_1
XFILLER_2_189 vssd1 vssd1 vccd1 vccd1 sky130_fd_sc_hd__decap_6
XFILLER_9_57 vssd1 vccd1 vccd1 vssd1 sky130_ef_sc_hd__decap_12
XFILLER_20_233 vssd1 vccd1 vccd1 vssd1 sky130_ef_sc_hd__decap_12
XFILLER_20_277 vssd1 vccd1 vccd1 vssd1 sky130_ef_sc_hd__decap_12
XFILLER_18_77 vssd1 vssd1 vccd1 vccd1 sky130_fd_sc_hd__decap_6
XFILLER_7_237 vssd1 vccd1 vccd1 vssd1 sky130_ef_sc_hd__decap_12
XFILLER_34_65 vssd1 vccd1 vccd1 vssd1 sky130_ef_sc_hd__decap_12
XFILLER_46_141 vssd1 vssd1 vccd1 vccd1 sky130_fd_sc_hd__fill_2
XFILLER_28_141 vssd1 vccd1 vccd1 vssd1 sky130_ef_sc_hd__decap_12
XFILLER_29_54 vssd1 vssd1 vccd1 vccd1 sky130_fd_sc_hd__fill_2
XFILLER_43_111 vssd1 vssd1 vccd1 vccd1 sky130_fd_sc_hd__fill_1
XTAP_328 vssd1 vccd1 sky130_fd_sc_hd__tapvpwrvgnd_1
XTAP_317 vssd1 vccd1 sky130_fd_sc_hd__tapvpwrvgnd_1
XTAP_306 vssd1 vccd1 sky130_fd_sc_hd__tapvpwrvgnd_1
XFILLER_3_295 vssd1 vssd1 vccd1 vccd1 sky130_fd_sc_hd__decap_4
XFILLER_3_273 vssd1 vssd1 vccd1 vccd1 sky130_fd_sc_hd__decap_6
XFILLER_34_133 vssd1 vssd1 vccd1 vccd1 sky130_fd_sc_hd__decap_6
XFILLER_34_177 vssd1 vccd1 vccd1 vssd1 sky130_ef_sc_hd__decap_12
XFILLER_25_111 vssd1 vssd1 vccd1 vccd1 sky130_fd_sc_hd__fill_1
Xoutput9 _154_/X vssd1 vssd1 vccd1 vccd1 cw_rst_o sky130_fd_sc_hd__buf_2
Xoutput11 _165_/X vssd1 vssd1 vccd1 vccd1 io_oeb_15_0[10] sky130_fd_sc_hd__buf_2
Xoutput22 _161_/X vssd1 vssd1 vccd1 vccd1 io_oeb_15_0[6] sky130_fd_sc_hd__buf_2
XFILLER_16_133 vssd1 vssd1 vccd1 vccd1 sky130_fd_sc_hd__decap_6
XFILLER_16_177 vssd1 vccd1 vccd1 vssd1 sky130_ef_sc_hd__decap_12
XFILLER_31_125 vssd1 vccd1 vccd1 vssd1 sky130_ef_sc_hd__decap_12
XFILLER_31_169 vssd1 vccd1 vccd1 vssd1 sky130_ef_sc_hd__decap_12
XTAP_114 vssd1 vccd1 sky130_fd_sc_hd__tapvpwrvgnd_1
XTAP_103 vssd1 vccd1 sky130_fd_sc_hd__tapvpwrvgnd_1
XFILLER_39_225 vssd1 vccd1 vccd1 vssd1 sky130_ef_sc_hd__decap_12
XTAP_136 vssd1 vccd1 sky130_fd_sc_hd__tapvpwrvgnd_1
XTAP_125 vssd1 vccd1 sky130_fd_sc_hd__tapvpwrvgnd_1
XTAP_147 vssd1 vccd1 sky130_fd_sc_hd__tapvpwrvgnd_1
XTAP_158 vssd1 vccd1 sky130_fd_sc_hd__tapvpwrvgnd_1
XTAP_169 vssd1 vccd1 sky130_fd_sc_hd__tapvpwrvgnd_1
XFILLER_22_158 vssd1 vssd1 vccd1 vccd1 sky130_fd_sc_hd__fill_1
XFILLER_42_65 vssd1 vccd1 vccd1 vssd1 sky130_ef_sc_hd__decap_12
XFILLER_13_125 vssd1 vccd1 vccd1 vssd1 sky130_ef_sc_hd__decap_12
XFILLER_13_169 vssd1 vccd1 vccd1 vssd1 sky130_ef_sc_hd__decap_12
XFILLER_26_77 vssd1 vssd1 vccd1 vccd1 sky130_fd_sc_hd__decap_6
XFILLER_44_272 vssd1 vssd1 vccd1 vccd1 sky130_fd_sc_hd__decap_4
XFILLER_44_261 vssd1 vssd1 vccd1 vccd1 sky130_fd_sc_hd__fill_1
XFILLER_8_195 vssd1 vssd1 vccd1 vccd1 sky130_fd_sc_hd__fill_1
XFILLER_42_209 vssd1 vccd1 vccd1 vssd1 sky130_ef_sc_hd__decap_12
XFILLER_27_217 vssd1 vssd1 vccd1 vccd1 sky130_fd_sc_hd__decap_6
XFILLER_35_261 vssd1 vccd1 vccd1 vssd1 sky130_ef_sc_hd__decap_12
XFILLER_10_139 vssd1 vssd1 vccd1 vccd1 sky130_fd_sc_hd__fill_1
XFILLER_37_32 vssd1 vccd1 vccd1 vssd1 sky130_ef_sc_hd__decap_12
XFILLER_24_209 vssd1 vccd1 vccd1 vssd1 sky130_ef_sc_hd__decap_12
XFILLER_17_261 vssd1 vccd1 vccd1 vssd1 sky130_ef_sc_hd__decap_12
XFILLER_32_253 vssd1 vccd1 vccd1 vssd1 sky130_ef_sc_hd__decap_12
XFILLER_0_38 vssd1 vssd1 vccd1 vccd1 sky130_fd_sc_hd__decap_4
XFILLER_9_69 vssd1 vccd1 vccd1 vssd1 sky130_ef_sc_hd__decap_12
XFILLER_14_253 vssd1 vccd1 vccd1 vssd1 sky130_ef_sc_hd__decap_12
XFILLER_20_245 vssd1 vssd1 vccd1 vccd1 sky130_fd_sc_hd__decap_6
XFILLER_20_289 vssd1 vssd1 vccd1 vccd1 sky130_fd_sc_hd__decap_3
XFILLER_11_223 vssd1 vssd1 vccd1 vccd1 sky130_fd_sc_hd__fill_1
XFILLER_34_77 vssd1 vssd1 vccd1 vccd1 sky130_fd_sc_hd__decap_6
XFILLER_7_205 vssd1 vccd1 vccd1 vssd1 sky130_ef_sc_hd__decap_12
XFILLER_7_249 vssd1 vccd1 vccd1 vssd1 sky130_ef_sc_hd__decap_12
XFILLER_11_289 vssd1 vssd1 vccd1 vccd1 sky130_fd_sc_hd__decap_3
XFILLER_38_109 vssd1 vccd1 vccd1 vssd1 sky130_ef_sc_hd__decap_12
XFILLER_46_186 vssd1 vssd1 vccd1 vccd1 sky130_fd_sc_hd__decap_8
XANTENNA__162__A _168_/A vssd1 vssd1 vccd1 vccd1 sky130_fd_sc_hd__diode_2
XFILLER_45_21 vssd1 vssd1 vccd1 vccd1 sky130_fd_sc_hd__decap_4
XFILLER_28_153 vssd1 vccd1 vccd1 vssd1 sky130_ef_sc_hd__decap_12
XFILLER_28_197 vssd1 vccd1 vccd1 vssd1 sky130_ef_sc_hd__decap_12
XFILLER_43_167 vssd1 vssd1 vccd1 vccd1 sky130_fd_sc_hd__fill_1
XFILLER_6_26 vssd1 vssd1 vccd1 vccd1 sky130_fd_sc_hd__fill_2
XTAP_329 vssd1 vccd1 sky130_fd_sc_hd__tapvpwrvgnd_1
XTAP_318 vssd1 vccd1 sky130_fd_sc_hd__tapvpwrvgnd_1
XTAP_307 vssd1 vccd1 sky130_fd_sc_hd__tapvpwrvgnd_1
XFILLER_20_7 vssd1 vccd1 vccd1 vssd1 sky130_ef_sc_hd__decap_12
XANTENNA__157__A _168_/A vssd1 vssd1 vccd1 vccd1 sky130_fd_sc_hd__diode_2
XFILLER_34_189 vssd1 vssd1 vccd1 vccd1 sky130_fd_sc_hd__decap_6
XFILLER_15_57 vssd1 vccd1 vccd1 vssd1 sky130_ef_sc_hd__decap_12
XFILLER_25_167 vssd1 vssd1 vccd1 vccd1 sky130_fd_sc_hd__fill_1
Xoutput12 _166_/X vssd1 vssd1 vccd1 vccd1 io_oeb_15_0[11] sky130_fd_sc_hd__buf_2
Xoutput23 _162_/X vssd1 vssd1 vccd1 vccd1 io_oeb_15_0[7] sky130_fd_sc_hd__buf_2
XFILLER_0_222 vssd1 vssd1 vccd1 vccd1 sky130_fd_sc_hd__fill_2
XFILLER_0_200 vssd1 vssd1 vccd1 vccd1 sky130_fd_sc_hd__decap_4
XFILLER_16_189 vssd1 vssd1 vccd1 vccd1 sky130_fd_sc_hd__decap_6
XFILLER_31_137 vssd1 vccd1 vccd1 vssd1 sky130_ef_sc_hd__decap_12
XTAP_126 vssd1 vccd1 sky130_fd_sc_hd__tapvpwrvgnd_1
XTAP_115 vssd1 vccd1 sky130_fd_sc_hd__tapvpwrvgnd_1
XTAP_104 vssd1 vccd1 sky130_fd_sc_hd__tapvpwrvgnd_1
XTAP_137 vssd1 vccd1 sky130_fd_sc_hd__tapvpwrvgnd_1
XTAP_148 vssd1 vccd1 sky130_fd_sc_hd__tapvpwrvgnd_1
XFILLER_39_237 vssd1 vccd1 vccd1 vssd1 sky130_ef_sc_hd__decap_12
XTAP_159 vssd1 vccd1 sky130_fd_sc_hd__tapvpwrvgnd_1
XFILLER_42_77 vssd1 vssd1 vccd1 vccd1 sky130_fd_sc_hd__decap_6
XFILLER_13_137 vssd1 vccd1 vccd1 vssd1 sky130_ef_sc_hd__decap_12
XFILLER_21_181 vssd1 vccd1 vccd1 vssd1 sky130_ef_sc_hd__decap_12
XFILLER_29_281 vssd1 vssd1 vccd1 vccd1 sky130_fd_sc_hd__decap_8
XFILLER_44_295 vssd1 vssd1 vccd1 vccd1 sky130_fd_sc_hd__decap_4
XFILLER_44_251 vssd1 vssd1 vccd1 vccd1 sky130_fd_sc_hd__fill_1
XFILLER_8_141 vssd1 vccd1 vccd1 vssd1 sky130_ef_sc_hd__decap_12
XANTENNA__170__A _170_/A vssd1 vssd1 vccd1 vccd1 sky130_fd_sc_hd__diode_2
XFILLER_35_273 vssd1 vssd1 vccd1 vccd1 sky130_fd_sc_hd__decap_6
XFILLER_35_295 vssd1 vssd1 vccd1 vccd1 sky130_fd_sc_hd__decap_4
XFILLER_37_44 vssd1 vccd1 vccd1 vssd1 sky130_ef_sc_hd__decap_12
XFILLER_26_251 vssd1 vssd1 vccd1 vccd1 sky130_fd_sc_hd__fill_1
XFILLER_26_295 vssd1 vssd1 vccd1 vccd1 sky130_fd_sc_hd__decap_4
XFILLER_5_111 vssd1 vssd1 vccd1 vccd1 sky130_fd_sc_hd__fill_1
XFILLER_17_273 vssd1 vssd1 vccd1 vccd1 sky130_fd_sc_hd__decap_6
XANTENNA__165__A _170_/A vssd1 vssd1 vccd1 vccd1 sky130_fd_sc_hd__diode_2
XFILLER_17_295 vssd1 vssd1 vccd1 vccd1 sky130_fd_sc_hd__decap_4
XFILLER_32_221 vssd1 vccd1 vccd1 vssd1 sky130_ef_sc_hd__decap_12
XFILLER_32_265 vssd1 vccd1 vccd1 vssd1 sky130_ef_sc_hd__decap_12
XFILLER_23_57 vssd1 vccd1 vccd1 vssd1 sky130_ef_sc_hd__decap_12
XFILLER_0_17 vssd1 vssd1 vccd1 vccd1 sky130_fd_sc_hd__decap_4
XFILLER_14_221 vssd1 vccd1 vccd1 vssd1 sky130_ef_sc_hd__decap_12
XFILLER_14_265 vssd1 vccd1 vccd1 vssd1 sky130_ef_sc_hd__decap_12
XFILLER_43_6 vssd1 vssd1 vccd1 vccd1 sky130_fd_sc_hd__decap_4
XFILLER_34_12 vssd1 vccd1 vccd1 vssd1 sky130_ef_sc_hd__decap_12
XFILLER_7_217 vssd1 vssd1 vccd1 vccd1 sky130_fd_sc_hd__decap_6
XFILLER_11_279 vssd1 vssd1 vccd1 vccd1 sky130_fd_sc_hd__fill_1
XFILLER_46_154 vssd1 vssd1 vccd1 vccd1 sky130_fd_sc_hd__decap_3
XFILLER_4_209 vssd1 vccd1 vccd1 vssd1 sky130_ef_sc_hd__decap_12
XFILLER_43_113 vssd1 vccd1 vccd1 vssd1 sky130_ef_sc_hd__decap_12
XFILLER_28_121 vssd1 vccd1 vccd1 vssd1 sky130_ef_sc_hd__decap_12
XFILLER_28_165 vssd1 vccd1 vccd1 vssd1 sky130_ef_sc_hd__decap_12
XTAP_319 vssd1 vccd1 sky130_fd_sc_hd__tapvpwrvgnd_1
XTAP_308 vssd1 vccd1 sky130_fd_sc_hd__tapvpwrvgnd_1
XFILLER_25_113 vssd1 vccd1 vccd1 vssd1 sky130_ef_sc_hd__decap_12
XFILLER_15_69 vssd1 vccd1 vccd1 vssd1 sky130_ef_sc_hd__decap_12
Xoutput13 _167_/X vssd1 vssd1 vccd1 vccd1 io_oeb_15_0[12] sky130_fd_sc_hd__buf_2
Xoutput24 _163_/X vssd1 vssd1 vccd1 vccd1 io_oeb_15_0[8] sky130_fd_sc_hd__buf_2
XFILLER_31_57 vssd1 vccd1 vccd1 vssd1 sky130_ef_sc_hd__decap_12
XFILLER_0_278 vssd1 vssd1 vccd1 vccd1 sky130_fd_sc_hd__fill_2
XFILLER_0_256 vssd1 vssd1 vccd1 vccd1 sky130_fd_sc_hd__decap_4
XFILLER_31_105 vssd1 vssd1 vccd1 vccd1 sky130_fd_sc_hd__decap_6
XFILLER_31_149 vssd1 vccd1 vccd1 vssd1 sky130_ef_sc_hd__decap_12
XFILLER_39_205 vssd1 vccd1 vccd1 vssd1 sky130_ef_sc_hd__decap_12
XTAP_127 vssd1 vccd1 sky130_fd_sc_hd__tapvpwrvgnd_1
XTAP_116 vssd1 vccd1 sky130_fd_sc_hd__tapvpwrvgnd_1
XTAP_105 vssd1 vccd1 sky130_fd_sc_hd__tapvpwrvgnd_1
XTAP_138 vssd1 vccd1 sky130_fd_sc_hd__tapvpwrvgnd_1
XTAP_149 vssd1 vccd1 sky130_fd_sc_hd__tapvpwrvgnd_1
XANTENNA__168__A _168_/A vssd1 vssd1 vccd1 vccd1 sky130_fd_sc_hd__diode_2
XFILLER_39_249 vssd1 vccd1 vccd1 vssd1 sky130_ef_sc_hd__decap_12
XFILLER_7_81 vssd1 vccd1 vccd1 vssd1 sky130_ef_sc_hd__decap_12
XFILLER_13_105 vssd1 vssd1 vccd1 vccd1 sky130_fd_sc_hd__decap_6
XFILLER_13_149 vssd1 vccd1 vccd1 vssd1 sky130_ef_sc_hd__decap_12
XFILLER_42_12 vssd1 vccd1 vccd1 vssd1 sky130_ef_sc_hd__decap_12
XFILLER_21_193 vssd1 vccd1 vccd1 vssd1 sky130_ef_sc_hd__decap_12
XFILLER_8_153 vssd1 vccd1 vccd1 vssd1 sky130_ef_sc_hd__decap_12
XFILLER_8_197 vssd1 vccd1 vccd1 vssd1 sky130_ef_sc_hd__decap_12
XFILLER_12_26 vssd1 vssd1 vccd1 vccd1 sky130_fd_sc_hd__fill_2
XFILLER_41_288 vssd1 vssd1 vccd1 vccd1 sky130_fd_sc_hd__decap_4
XFILLER_5_167 vssd1 vssd1 vccd1 vccd1 sky130_fd_sc_hd__fill_1
XFILLER_32_233 vssd1 vccd1 vccd1 vssd1 sky130_ef_sc_hd__decap_12
XFILLER_32_277 vssd1 vccd1 vccd1 vssd1 sky130_ef_sc_hd__decap_12
XFILLER_23_288 vssd1 vssd1 vccd1 vccd1 sky130_fd_sc_hd__decap_4
XFILLER_23_69 vssd1 vccd1 vccd1 vssd1 sky130_ef_sc_hd__decap_12
XFILLER_3_6 vssd1 vssd1 vccd1 vccd1 sky130_fd_sc_hd__decap_4
XFILLER_14_233 vssd1 vccd1 vccd1 vssd1 sky130_ef_sc_hd__decap_12
XFILLER_14_277 vssd1 vccd1 vccd1 vssd1 sky130_ef_sc_hd__decap_12
XFILLER_36_6 vssd1 vccd1 vccd1 vssd1 sky130_ef_sc_hd__decap_12
XFILLER_1_181 vssd1 vssd1 vccd1 vccd1 sky130_fd_sc_hd__decap_4
XFILLER_9_281 vssd1 vssd1 vccd1 vccd1 sky130_fd_sc_hd__decap_8
XFILLER_11_225 vssd1 vccd1 vccd1 vssd1 sky130_ef_sc_hd__decap_12
XFILLER_34_24 vssd1 vssd1 vccd1 vccd1 sky130_fd_sc_hd__decap_4
XFILLER_1_3 vssd1 vssd1 vccd1 vccd1 sky130_fd_sc_hd__decap_4
X_169_ _170_/A vssd1 vssd1 vccd1 vccd1 _169_/X sky130_fd_sc_hd__clkbuf_1
XFILLER_6_251 vssd1 vssd1 vccd1 vccd1 sky130_fd_sc_hd__fill_1
XFILLER_6_295 vssd1 vssd1 vccd1 vccd1 sky130_fd_sc_hd__decap_4
XFILLER_37_111 vssd1 vssd1 vccd1 vccd1 sky130_fd_sc_hd__fill_1
XFILLER_1_83 vssd1 vssd1 vccd1 vccd1 sky130_fd_sc_hd__decap_4
XFILLER_29_57 vssd1 vccd1 vccd1 vssd1 sky130_ef_sc_hd__decap_12
XFILLER_45_45 vssd1 vssd1 vccd1 vccd1 sky130_fd_sc_hd__decap_4
XFILLER_43_169 vssd1 vccd1 vccd1 vssd1 sky130_ef_sc_hd__decap_12
XFILLER_43_125 vssd1 vccd1 vccd1 vssd1 sky130_ef_sc_hd__decap_12
XFILLER_28_133 vssd1 vssd1 vccd1 vccd1 sky130_fd_sc_hd__decap_6
XFILLER_28_177 vssd1 vccd1 vccd1 vssd1 sky130_ef_sc_hd__decap_12
XTAP_309 vssd1 vccd1 sky130_fd_sc_hd__tapvpwrvgnd_1
XFILLER_19_111 vssd1 vssd1 vccd1 vccd1 sky130_fd_sc_hd__fill_1
XFILLER_25_125 vssd1 vccd1 vccd1 vssd1 sky130_ef_sc_hd__decap_12
XFILLER_25_169 vssd1 vccd1 vccd1 vssd1 sky130_ef_sc_hd__decap_12
XFILLER_40_139 vssd1 vssd1 vccd1 vccd1 sky130_fd_sc_hd__fill_1
Xoutput14 _168_/X vssd1 vssd1 vccd1 vccd1 io_oeb_15_0[13] sky130_fd_sc_hd__buf_2
Xoutput25 _164_/X vssd1 vssd1 vccd1 vccd1 io_oeb_15_0[9] sky130_fd_sc_hd__buf_2
XFILLER_0_235 vssd1 vssd1 vccd1 vccd1 sky130_fd_sc_hd__decap_4
XFILLER_31_69 vssd1 vccd1 vccd1 vssd1 sky130_ef_sc_hd__decap_12
XFILLER_39_217 vssd1 vssd1 vccd1 vccd1 sky130_fd_sc_hd__decap_6
XTAP_128 vssd1 vccd1 sky130_fd_sc_hd__tapvpwrvgnd_1
XTAP_117 vssd1 vccd1 sky130_fd_sc_hd__tapvpwrvgnd_1
XTAP_106 vssd1 vccd1 sky130_fd_sc_hd__tapvpwrvgnd_1
XTAP_139 vssd1 vccd1 sky130_fd_sc_hd__tapvpwrvgnd_1
XPHY_0 vssd1 vssd1 vccd1 vccd1 sky130_fd_sc_hd__decap_3
XFILLER_22_139 vssd1 vssd1 vccd1 vccd1 sky130_fd_sc_hd__fill_1
XFILLER_7_93 vssd1 vccd1 vccd1 vssd1 sky130_ef_sc_hd__decap_12
XFILLER_42_24 vssd1 vssd1 vccd1 vccd1 sky130_fd_sc_hd__decap_4
XFILLER_21_161 vssd1 vssd1 vccd1 vccd1 sky130_fd_sc_hd__decap_6
XFILLER_44_253 vssd1 vssd1 vccd1 vccd1 sky130_fd_sc_hd__decap_8
XFILLER_36_209 vssd1 vccd1 vccd1 vssd1 sky130_ef_sc_hd__decap_12
XFILLER_29_261 vssd1 vccd1 vccd1 vssd1 sky130_ef_sc_hd__decap_12
XFILLER_44_286 vssd1 vssd1 vccd1 vccd1 sky130_fd_sc_hd__decap_4
XFILLER_8_121 vssd1 vccd1 vccd1 vssd1 sky130_ef_sc_hd__decap_12
XFILLER_8_165 vssd1 vccd1 vccd1 vssd1 sky130_ef_sc_hd__decap_12
XFILLER_10_109 vssd1 vccd1 vccd1 vssd1 sky130_ef_sc_hd__decap_12
XFILLER_37_57 vssd1 vccd1 vccd1 vssd1 sky130_ef_sc_hd__decap_12
XFILLER_18_209 vssd1 vccd1 vccd1 vssd1 sky130_ef_sc_hd__decap_12
XFILLER_26_253 vssd1 vccd1 vccd1 vssd1 sky130_ef_sc_hd__decap_12
XFILLER_41_223 vssd1 vssd1 vccd1 vccd1 sky130_fd_sc_hd__fill_1
XFILLER_5_113 vssd1 vccd1 vccd1 vssd1 sky130_ef_sc_hd__decap_12
XFILLER_32_245 vssd1 vssd1 vccd1 vccd1 sky130_fd_sc_hd__decap_6
XFILLER_32_289 vssd1 vssd1 vccd1 vccd1 sky130_fd_sc_hd__decap_3
XFILLER_4_83 vssd1 vssd1 vccd1 vccd1 sky130_fd_sc_hd__fill_1
XFILLER_23_223 vssd1 vssd1 vccd1 vccd1 sky130_fd_sc_hd__fill_1
XFILLER_14_245 vssd1 vssd1 vccd1 vccd1 sky130_fd_sc_hd__decap_6
XFILLER_13_81 vssd1 vccd1 vccd1 vssd1 sky130_ef_sc_hd__decap_12
XFILLER_14_289 vssd1 vssd1 vccd1 vccd1 sky130_fd_sc_hd__decap_3
XFILLER_29_6 vssd1 vccd1 vccd1 vssd1 sky130_ef_sc_hd__decap_12
XFILLER_18_15 vssd1 vccd1 vccd1 vssd1 sky130_ef_sc_hd__decap_12
XFILLER_11_237 vssd1 vccd1 vccd1 vssd1 sky130_ef_sc_hd__decap_12
X_168_ _168_/A vssd1 vssd1 vccd1 vccd1 _168_/X sky130_fd_sc_hd__clkbuf_1
XFILLER_37_167 vssd1 vssd1 vccd1 vccd1 sky130_fd_sc_hd__fill_1
XFILLER_1_73 vssd1 vssd1 vccd1 vccd1 sky130_fd_sc_hd__decap_6
XFILLER_20_27 vssd1 vssd1 vccd1 vccd1 sky130_fd_sc_hd__fill_1
XFILLER_29_69 vssd1 vccd1 vccd1 vssd1 sky130_ef_sc_hd__decap_12
XFILLER_45_35 vssd1 vssd1 vccd1 vccd1 sky130_fd_sc_hd__decap_6
XFILLER_43_137 vssd1 vccd1 vccd1 vssd1 sky130_ef_sc_hd__decap_12
XFILLER_28_189 vssd1 vssd1 vccd1 vccd1 sky130_fd_sc_hd__decap_6
XFILLER_6_29 vssd1 vccd1 vccd1 vssd1 sky130_ef_sc_hd__decap_12
XFILLER_6_18 vssd1 vssd1 vccd1 vccd1 sky130_fd_sc_hd__decap_8
XFILLER_3_288 vssd1 vssd1 vccd1 vccd1 sky130_fd_sc_hd__decap_4
XFILLER_19_167 vssd1 vssd1 vccd1 vccd1 sky130_fd_sc_hd__fill_1
XFILLER_25_137 vssd1 vccd1 vccd1 vssd1 sky130_ef_sc_hd__decap_12
XFILLER_33_181 vssd1 vccd1 vccd1 vssd1 sky130_ef_sc_hd__decap_12
XFILLER_0_214 vssd1 vssd1 vccd1 vccd1 sky130_fd_sc_hd__decap_8
Xoutput15 _169_/X vssd1 vssd1 vccd1 vccd1 io_oeb_15_0[14] sky130_fd_sc_hd__buf_2
XFILLER_21_81 vssd1 vccd1 vccd1 vssd1 sky130_ef_sc_hd__decap_12
XTAP_129 vssd1 vccd1 sky130_fd_sc_hd__tapvpwrvgnd_1
XTAP_118 vssd1 vccd1 sky130_fd_sc_hd__tapvpwrvgnd_1
XTAP_107 vssd1 vccd1 sky130_fd_sc_hd__tapvpwrvgnd_1
XPHY_1 vssd1 vssd1 vccd1 vccd1 sky130_fd_sc_hd__decap_3
XFILLER_15_181 vssd1 vccd1 vccd1 vssd1 sky130_ef_sc_hd__decap_12
XFILLER_30_195 vssd1 vssd1 vccd1 vccd1 sky130_fd_sc_hd__fill_1
XFILLER_38_251 vssd1 vssd1 vccd1 vccd1 sky130_fd_sc_hd__fill_1
XFILLER_26_26 vssd1 vssd1 vccd1 vccd1 sky130_fd_sc_hd__fill_2
XFILLER_44_265 vssd1 vssd1 vccd1 vccd1 sky130_fd_sc_hd__decap_4
XFILLER_44_221 vssd1 vccd1 vccd1 vssd1 sky130_ef_sc_hd__decap_12
XFILLER_29_273 vssd1 vssd1 vccd1 vccd1 sky130_fd_sc_hd__decap_6
XFILLER_29_295 vssd1 vssd1 vccd1 vccd1 sky130_fd_sc_hd__decap_4
XFILLER_8_133 vssd1 vssd1 vccd1 vccd1 sky130_fd_sc_hd__decap_6
XFILLER_8_177 vssd1 vccd1 vccd1 vssd1 sky130_ef_sc_hd__decap_12
XFILLER_12_195 vssd1 vssd1 vccd1 vccd1 sky130_fd_sc_hd__fill_1
XFILLER_37_14 vssd1 vssd1 vccd1 vccd1 sky130_fd_sc_hd__decap_4
XFILLER_37_69 vssd1 vccd1 vccd1 vssd1 sky130_ef_sc_hd__decap_12
XFILLER_26_221 vssd1 vccd1 vccd1 vssd1 sky130_ef_sc_hd__decap_12
XFILLER_26_265 vssd1 vccd1 vccd1 vssd1 sky130_ef_sc_hd__decap_12
XFILLER_26_287 vssd1 vssd1 vccd1 vccd1 sky130_fd_sc_hd__decap_4
XFILLER_41_279 vssd1 vssd1 vccd1 vccd1 sky130_fd_sc_hd__fill_1
XFILLER_5_169 vssd1 vccd1 vccd1 vssd1 sky130_ef_sc_hd__decap_12
XFILLER_5_125 vssd1 vccd1 vccd1 vssd1 sky130_ef_sc_hd__decap_12
XFILLER_23_257 vssd1 vssd1 vccd1 vccd1 sky130_fd_sc_hd__fill_2
XFILLER_2_139 vssd1 vssd1 vccd1 vccd1 sky130_fd_sc_hd__fill_1
XTAP_290 vssd1 vccd1 sky130_fd_sc_hd__tapvpwrvgnd_1
XFILLER_9_18 vssd1 vccd1 vccd1 vssd1 sky130_ef_sc_hd__decap_12
XFILLER_13_93 vssd1 vccd1 vccd1 vssd1 sky130_ef_sc_hd__decap_12
XFILLER_9_261 vssd1 vccd1 vccd1 vssd1 sky130_ef_sc_hd__decap_12
XFILLER_18_27 vssd1 vssd1 vccd1 vccd1 sky130_fd_sc_hd__fill_1
XFILLER_11_205 vssd1 vccd1 vccd1 vssd1 sky130_ef_sc_hd__decap_12
XFILLER_11_249 vssd1 vccd1 vccd1 vssd1 sky130_ef_sc_hd__decap_12
XFILLER_46_179 vssd1 vssd1 vccd1 vccd1 sky130_fd_sc_hd__decap_4
XFILLER_46_146 vssd1 vssd1 vccd1 vccd1 sky130_fd_sc_hd__decap_8
X_167_ _168_/A vssd1 vssd1 vccd1 vccd1 _167_/X sky130_fd_sc_hd__clkbuf_1
XFILLER_41_6 vssd1 vccd1 vccd1 vssd1 sky130_ef_sc_hd__decap_12