* NGSPICE file created from wb_cross_clk.ext - technology: sky130B

* Black-box entry subcircuit for sky130_ef_sc_hd__decap_12 abstract view
.subckt sky130_ef_sc_hd__decap_12 VGND VPWR VPB VNB
.ends

* Black-box entry subcircuit for sky130_fd_sc_hd__fill_1 abstract view
.subckt sky130_fd_sc_hd__fill_1 VGND VNB VPB VPWR
.ends

* Black-box entry subcircuit for sky130_fd_sc_hd__tapvpwrvgnd_1 abstract view
.subckt sky130_fd_sc_hd__tapvpwrvgnd_1 VGND VPWR
.ends

* Black-box entry subcircuit for sky130_fd_sc_hd__decap_8 abstract view
.subckt sky130_fd_sc_hd__decap_8 VGND VNB VPB VPWR
.ends

* Black-box entry subcircuit for sky130_fd_sc_hd__decap_4 abstract view
.subckt sky130_fd_sc_hd__decap_4 VGND VNB VPB VPWR
.ends

* Black-box entry subcircuit for sky130_fd_sc_hd__decap_6 abstract view
.subckt sky130_fd_sc_hd__decap_6 VGND VNB VPB VPWR
.ends

* Black-box entry subcircuit for sky130_fd_sc_hd__diode_2 abstract view
.subckt sky130_fd_sc_hd__diode_2 DIODE VGND VNB VPB VPWR
.ends

* Black-box entry subcircuit for sky130_fd_sc_hd__dfxtp_2 abstract view
.subckt sky130_fd_sc_hd__dfxtp_2 CLK D VGND VNB VPB VPWR Q
.ends

* Black-box entry subcircuit for sky130_fd_sc_hd__fill_2 abstract view
.subckt sky130_fd_sc_hd__fill_2 VGND VNB VPB VPWR
.ends

* Black-box entry subcircuit for sky130_fd_sc_hd__and2_1 abstract view
.subckt sky130_fd_sc_hd__and2_1 A B VGND VNB VPB VPWR X
.ends

* Black-box entry subcircuit for sky130_fd_sc_hd__dfxtp_1 abstract view
.subckt sky130_fd_sc_hd__dfxtp_1 CLK D VGND VNB VPB VPWR Q
.ends

* Black-box entry subcircuit for sky130_fd_sc_hd__clkbuf_1 abstract view
.subckt sky130_fd_sc_hd__clkbuf_1 A VGND VNB VPB VPWR X
.ends

* Black-box entry subcircuit for sky130_fd_sc_hd__mux2_1 abstract view
.subckt sky130_fd_sc_hd__mux2_1 A0 A1 S VGND VNB VPB VPWR X
.ends

* Black-box entry subcircuit for sky130_fd_sc_hd__or3_1 abstract view
.subckt sky130_fd_sc_hd__or3_1 A B C VGND VNB VPB VPWR X
.ends

* Black-box entry subcircuit for sky130_fd_sc_hd__buf_2 abstract view
.subckt sky130_fd_sc_hd__buf_2 A VGND VNB VPB VPWR X
.ends

* Black-box entry subcircuit for sky130_fd_sc_hd__nand2_1 abstract view
.subckt sky130_fd_sc_hd__nand2_1 A B VGND VNB VPB VPWR Y
.ends

* Black-box entry subcircuit for sky130_fd_sc_hd__decap_3 abstract view
.subckt sky130_fd_sc_hd__decap_3 VGND VNB VPB VPWR
.ends

* Black-box entry subcircuit for sky130_fd_sc_hd__clkbuf_2 abstract view
.subckt sky130_fd_sc_hd__clkbuf_2 A VGND VNB VPB VPWR X
.ends

* Black-box entry subcircuit for sky130_fd_sc_hd__inv_2 abstract view
.subckt sky130_fd_sc_hd__inv_2 A VGND VNB VPB VPWR Y
.ends

* Black-box entry subcircuit for sky130_fd_sc_hd__o211a_1 abstract view
.subckt sky130_fd_sc_hd__o211a_1 A1 A2 B1 C1 VGND VNB VPB VPWR X
.ends

* Black-box entry subcircuit for sky130_fd_sc_hd__clkbuf_16 abstract view
.subckt sky130_fd_sc_hd__clkbuf_16 A VGND VNB VPB VPWR X
.ends

* Black-box entry subcircuit for sky130_fd_sc_hd__o21ai_1 abstract view
.subckt sky130_fd_sc_hd__o21ai_1 A1 A2 B1 VGND VNB VPB VPWR Y
.ends

* Black-box entry subcircuit for sky130_fd_sc_hd__clkbuf_4 abstract view
.subckt sky130_fd_sc_hd__clkbuf_4 A VGND VNB VPB VPWR X
.ends

* Black-box entry subcircuit for sky130_fd_sc_hd__a211oi_1 abstract view
.subckt sky130_fd_sc_hd__a211oi_1 A1 A2 B1 C1 VGND VNB VPB VPWR Y
.ends

* Black-box entry subcircuit for sky130_fd_sc_hd__xor2_4 abstract view
.subckt sky130_fd_sc_hd__xor2_4 A B VGND VNB VPB VPWR X
.ends

* Black-box entry subcircuit for sky130_fd_sc_hd__buf_4 abstract view
.subckt sky130_fd_sc_hd__buf_4 A VGND VNB VPB VPWR X
.ends

* Black-box entry subcircuit for sky130_fd_sc_hd__nor2_1 abstract view
.subckt sky130_fd_sc_hd__nor2_1 A B VGND VNB VPB VPWR Y
.ends

* Black-box entry subcircuit for sky130_fd_sc_hd__o21a_1 abstract view
.subckt sky130_fd_sc_hd__o21a_1 A1 A2 B1 VGND VNB VPB VPWR X
.ends

* Black-box entry subcircuit for sky130_fd_sc_hd__and3_1 abstract view
.subckt sky130_fd_sc_hd__and3_1 A B C VGND VNB VPB VPWR X
.ends

* Black-box entry subcircuit for sky130_fd_sc_hd__xor2_1 abstract view
.subckt sky130_fd_sc_hd__xor2_1 A B VGND VNB VPB VPWR X
.ends

* Black-box entry subcircuit for sky130_fd_sc_hd__dlymetal6s2s_1 abstract view
.subckt sky130_fd_sc_hd__dlymetal6s2s_1 A VGND VNB VPB VPWR X
.ends

* Black-box entry subcircuit for sky130_fd_sc_hd__a21oi_1 abstract view
.subckt sky130_fd_sc_hd__a21oi_1 A1 A2 B1 VGND VNB VPB VPWR Y
.ends

* Black-box entry subcircuit for sky130_fd_sc_hd__a31o_1 abstract view
.subckt sky130_fd_sc_hd__a31o_1 A1 A2 A3 B1 VGND VNB VPB VPWR X
.ends

* Black-box entry subcircuit for sky130_fd_sc_hd__or2_1 abstract view
.subckt sky130_fd_sc_hd__or2_1 A B VGND VNB VPB VPWR X
.ends

* Black-box entry subcircuit for sky130_fd_sc_hd__a21bo_1 abstract view
.subckt sky130_fd_sc_hd__a21bo_1 A1 A2 B1_N VGND VNB VPB VPWR X
.ends

* Black-box entry subcircuit for sky130_fd_sc_hd__or2_2 abstract view
.subckt sky130_fd_sc_hd__or2_2 A B VGND VNB VPB VPWR X
.ends

* Black-box entry subcircuit for sky130_fd_sc_hd__a21oi_4 abstract view
.subckt sky130_fd_sc_hd__a21oi_4 A1 A2 B1 VGND VNB VPB VPWR Y
.ends

* Black-box entry subcircuit for sky130_fd_sc_hd__o32a_1 abstract view
.subckt sky130_fd_sc_hd__o32a_1 A1 A2 A3 B1 B2 VGND VNB VPB VPWR X
.ends

* Black-box entry subcircuit for sky130_fd_sc_hd__nand3_1 abstract view
.subckt sky130_fd_sc_hd__nand3_1 A B C VGND VNB VPB VPWR Y
.ends

* Black-box entry subcircuit for sky130_fd_sc_hd__o31ai_1 abstract view
.subckt sky130_fd_sc_hd__o31ai_1 A1 A2 A3 B1 VGND VNB VPB VPWR Y
.ends

* Black-box entry subcircuit for sky130_fd_sc_hd__or4_1 abstract view
.subckt sky130_fd_sc_hd__or4_1 A B C D VGND VNB VPB VPWR X
.ends

* Black-box entry subcircuit for sky130_fd_sc_hd__a2111o_4 abstract view
.subckt sky130_fd_sc_hd__a2111o_4 A1 A2 B1 C1 D1 VGND VNB VPB VPWR X
.ends

* Black-box entry subcircuit for sky130_fd_sc_hd__or3b_1 abstract view
.subckt sky130_fd_sc_hd__or3b_1 A B C_N VGND VNB VPB VPWR X
.ends

* Black-box entry subcircuit for sky130_fd_sc_hd__a31oi_2 abstract view
.subckt sky130_fd_sc_hd__a31oi_2 A1 A2 A3 B1 VGND VNB VPB VPWR Y
.ends

* Black-box entry subcircuit for sky130_fd_sc_hd__a32o_1 abstract view
.subckt sky130_fd_sc_hd__a32o_1 A1 A2 A3 B1 B2 VGND VNB VPB VPWR X
.ends

* Black-box entry subcircuit for sky130_fd_sc_hd__nor3_1 abstract view
.subckt sky130_fd_sc_hd__nor3_1 A B C VGND VNB VPB VPWR Y
.ends

* Black-box entry subcircuit for sky130_fd_sc_hd__and2b_1 abstract view
.subckt sky130_fd_sc_hd__and2b_1 A_N B VGND VNB VPB VPWR X
.ends

* Black-box entry subcircuit for sky130_fd_sc_hd__conb_1 abstract view
.subckt sky130_fd_sc_hd__conb_1 VGND VNB VPB VPWR HI LO
.ends

.subckt wb_cross_clk clk_m clk_s m_rst m_wb_4_burst m_wb_8_burst m_wb_ack m_wb_adr[0]
+ m_wb_adr[10] m_wb_adr[11] m_wb_adr[12] m_wb_adr[13] m_wb_adr[14] m_wb_adr[15] m_wb_adr[16]
+ m_wb_adr[17] m_wb_adr[18] m_wb_adr[19] m_wb_adr[1] m_wb_adr[20] m_wb_adr[21] m_wb_adr[22]
+ m_wb_adr[23] m_wb_adr[2] m_wb_adr[3] m_wb_adr[4] m_wb_adr[5] m_wb_adr[6] m_wb_adr[7]
+ m_wb_adr[8] m_wb_adr[9] m_wb_cyc m_wb_err m_wb_i_dat[0] m_wb_i_dat[10] m_wb_i_dat[11]
+ m_wb_i_dat[12] m_wb_i_dat[13] m_wb_i_dat[14] m_wb_i_dat[15] m_wb_i_dat[1] m_wb_i_dat[2]
+ m_wb_i_dat[3] m_wb_i_dat[4] m_wb_i_dat[5] m_wb_i_dat[6] m_wb_i_dat[7] m_wb_i_dat[8]
+ m_wb_i_dat[9] m_wb_o_dat[0] m_wb_o_dat[10] m_wb_o_dat[11] m_wb_o_dat[12] m_wb_o_dat[13]
+ m_wb_o_dat[14] m_wb_o_dat[15] m_wb_o_dat[1] m_wb_o_dat[2] m_wb_o_dat[3] m_wb_o_dat[4]
+ m_wb_o_dat[5] m_wb_o_dat[6] m_wb_o_dat[7] m_wb_o_dat[8] m_wb_o_dat[9] m_wb_sel[0]
+ m_wb_sel[1] m_wb_stb m_wb_we s_rst s_wb_4_burst s_wb_8_burst s_wb_ack s_wb_adr[0]
+ s_wb_adr[10] s_wb_adr[11] s_wb_adr[12] s_wb_adr[13] s_wb_adr[14] s_wb_adr[15] s_wb_adr[16]
+ s_wb_adr[17] s_wb_adr[18] s_wb_adr[19] s_wb_adr[1] s_wb_adr[20] s_wb_adr[21] s_wb_adr[22]
+ s_wb_adr[23] s_wb_adr[2] s_wb_adr[3] s_wb_adr[4] s_wb_adr[5] s_wb_adr[6] s_wb_adr[7]
+ s_wb_adr[8] s_wb_adr[9] s_wb_cyc s_wb_err s_wb_i_dat[0] s_wb_i_dat[10] s_wb_i_dat[11]
+ s_wb_i_dat[12] s_wb_i_dat[13] s_wb_i_dat[14] s_wb_i_dat[15] s_wb_i_dat[1] s_wb_i_dat[2]
+ s_wb_i_dat[3] s_wb_i_dat[4] s_wb_i_dat[5] s_wb_i_dat[6] s_wb_i_dat[7] s_wb_i_dat[8]
+ s_wb_i_dat[9] s_wb_o_dat[0] s_wb_o_dat[10] s_wb_o_dat[11] s_wb_o_dat[12] s_wb_o_dat[13]
+ s_wb_o_dat[14] s_wb_o_dat[15] s_wb_o_dat[1] s_wb_o_dat[2] s_wb_o_dat[3] s_wb_o_dat[4]
+ s_wb_o_dat[5] s_wb_o_dat[6] s_wb_o_dat[7] s_wb_o_dat[8] s_wb_o_dat[9] s_wb_sel[0]
+ s_wb_sel[1] s_wb_stb s_wb_we vccd1 vssd1
XFILLER_54_269 vssd1 vccd1 vccd1 vssd1 sky130_ef_sc_hd__decap_12
XFILLER_54_236 vssd1 vssd1 vccd1 vccd1 sky130_fd_sc_hd__fill_1
XTAP_177 vssd1 vccd1 sky130_fd_sc_hd__tapvpwrvgnd_1
XTAP_188 vssd1 vccd1 sky130_fd_sc_hd__tapvpwrvgnd_1
XTAP_199 vssd1 vccd1 sky130_fd_sc_hd__tapvpwrvgnd_1
XFILLER_52_29 vssd1 vccd1 vccd1 vssd1 sky130_ef_sc_hd__decap_12
XFILLER_22_199 vssd1 vssd1 vccd1 vccd1 sky130_fd_sc_hd__decap_8
XFILLER_22_177 vssd1 vssd1 vccd1 vccd1 sky130_fd_sc_hd__decap_4
XFILLER_22_133 vssd1 vssd1 vccd1 vccd1 sky130_fd_sc_hd__decap_6
XFILLER_60_206 vssd1 vssd1 vccd1 vccd1 sky130_fd_sc_hd__decap_8
XFILLER_45_269 vssd1 vssd1 vccd1 vccd1 sky130_fd_sc_hd__decap_8
XFILLER_45_225 vssd1 vssd1 vccd1 vccd1 sky130_fd_sc_hd__fill_1
XFILLER_26_85 vssd1 vccd1 vccd1 vssd1 sky130_ef_sc_hd__decap_12
XFILLER_26_41 vssd1 vccd1 vccd1 vssd1 sky130_ef_sc_hd__decap_12
XANTENNA__0584__S _0592_/S vssd1 vssd1 vccd1 vccd1 sky130_fd_sc_hd__diode_2
XFILLER_13_111 vssd1 vssd1 vccd1 vccd1 sky130_fd_sc_hd__fill_1
XFILLER_13_122 vssd1 vssd1 vccd1 vccd1 sky130_fd_sc_hd__decap_4
XFILLER_5_321 vssd1 vssd1 vccd1 vccd1 sky130_fd_sc_hd__decap_8
XANTENNA__0708__A0 _0977_/Q vssd1 vssd1 vccd1 vccd1 sky130_fd_sc_hd__diode_2
XFILLER_5_332 vssd1 vssd1 vccd1 vccd1 sky130_fd_sc_hd__decap_4
XFILLER_5_354 vssd1 vssd1 vccd1 vccd1 sky130_fd_sc_hd__fill_1
XFILLER_36_236 vssd1 vssd1 vccd1 vccd1 sky130_fd_sc_hd__decap_4
XFILLER_3_67 vssd1 vssd1 vccd1 vccd1 sky130_fd_sc_hd__decap_4
XFILLER_44_291 vssd1 vccd1 vccd1 vssd1 sky130_ef_sc_hd__decap_12
XANTENNA__0542__C_N input3/X vssd1 vssd1 vccd1 vccd1 sky130_fd_sc_hd__diode_2
X_0985_ _1027_/CLK _0985_/D vssd1 vssd1 vccd1 vccd1 _0985_/Q sky130_fd_sc_hd__dfxtp_2
XFILLER_8_192 vssd1 vssd1 vccd1 vccd1 sky130_fd_sc_hd__decap_4
XFILLER_27_225 vssd1 vccd1 vccd1 vssd1 sky130_ef_sc_hd__decap_12
XFILLER_27_214 vssd1 vssd1 vccd1 vccd1 sky130_fd_sc_hd__decap_8
XFILLER_50_250 vssd1 vssd1 vccd1 vccd1 sky130_fd_sc_hd__fill_2
XFILLER_6_129 vssd1 vssd1 vccd1 vccd1 sky130_fd_sc_hd__decap_4
XFILLER_12_65 vssd1 vccd1 vccd1 vssd1 sky130_ef_sc_hd__decap_12
XFILLER_37_51 vssd1 vssd1 vccd1 vccd1 sky130_fd_sc_hd__decap_4
XFILLER_33_239 vssd1 vccd1 vccd1 vssd1 sky130_ef_sc_hd__decap_12
X_0770_ _0770_/A _0770_/B vssd1 vssd1 vccd1 vccd1 _0771_/A sky130_fd_sc_hd__and2_1
XFILLER_56_309 vssd1 vssd1 vccd1 vccd1 sky130_fd_sc_hd__decap_8
XFILLER_64_397 vssd1 vssd1 vccd1 vccd1 sky130_fd_sc_hd__decap_4
XFILLER_49_361 vssd1 vccd1 vccd1 vssd1 sky130_ef_sc_hd__decap_12
X_0968_ _0973_/CLK _0968_/D vssd1 vssd1 vccd1 vccd1 _0968_/Q sky130_fd_sc_hd__dfxtp_1
X_0899_ _1030_/CLK _0899_/D vssd1 vssd1 vccd1 vccd1 _0899_/Q sky130_fd_sc_hd__dfxtp_1
XFILLER_59_169 vssd1 vccd1 vccd1 vssd1 sky130_ef_sc_hd__decap_12
XFILLER_30_209 vssd1 vccd1 vccd1 vssd1 sky130_ef_sc_hd__decap_12
XFILLER_11_401 vssd1 vssd1 vccd1 vccd1 sky130_fd_sc_hd__decap_6
XANTENNA_input55_A s_wb_i_dat[12] vssd1 vssd1 vccd1 vccd1 sky130_fd_sc_hd__diode_2
XFILLER_2_132 vssd1 vssd1 vccd1 vccd1 sky130_fd_sc_hd__fill_1
XFILLER_48_83 vssd1 vssd1 vccd1 vccd1 sky130_fd_sc_hd__fill_1
XFILLER_0_24 vssd1 vssd1 vccd1 vccd1 sky130_fd_sc_hd__decap_4
XFILLER_61_356 vssd1 vssd1 vccd1 vccd1 sky130_fd_sc_hd__decap_4
X_0822_ _0822_/A vssd1 vssd1 vccd1 vccd1 _1013_/D sky130_fd_sc_hd__clkbuf_1
XFILLER_9_55 vssd1 vssd1 vccd1 vccd1 sky130_fd_sc_hd__fill_1
XFILLER_50_3 vssd1 vccd1 vccd1 vssd1 sky130_ef_sc_hd__decap_12
X_0753_ _0992_/Q _0923_/Q _0756_/S vssd1 vssd1 vccd1 vccd1 _0754_/B sky130_fd_sc_hd__mux2_1
X_0684_ _0969_/Q _0884_/Q _0690_/S vssd1 vssd1 vccd1 vccd1 _0685_/B sky130_fd_sc_hd__mux2_1
XFILLER_56_128 vssd1 vssd1 vccd1 vccd1 sky130_fd_sc_hd__decap_4
XFILLER_60_29 vssd1 vccd1 vccd1 vssd1 sky130_ef_sc_hd__decap_12
XFILLER_20_253 vssd1 vssd1 vccd1 vccd1 sky130_fd_sc_hd__fill_1
XFILLER_47_106 vssd1 vssd1 vccd1 vccd1 sky130_fd_sc_hd__decap_6
XANTENNA__0541__A1 input2/X vssd1 vssd1 vccd1 vccd1 sky130_fd_sc_hd__diode_2
XFILLER_18_53 vssd1 vccd1 vccd1 vssd1 sky130_ef_sc_hd__decap_12
XFILLER_18_97 vssd1 vccd1 vccd1 vssd1 sky130_ef_sc_hd__decap_12
XFILLER_34_85 vssd1 vccd1 vccd1 vssd1 sky130_ef_sc_hd__decap_12
XFILLER_34_41 vssd1 vccd1 vccd1 vssd1 sky130_ef_sc_hd__decap_12
XANTENNA__0592__S _0592_/S vssd1 vssd1 vccd1 vccd1 sky130_fd_sc_hd__diode_2
XFILLER_11_253 vssd1 vccd1 vccd1 vssd1 sky130_ef_sc_hd__decap_12
XTAP_507 vssd1 vccd1 sky130_fd_sc_hd__tapvpwrvgnd_1
XFILLER_11_297 vssd1 vccd1 vccd1 vssd1 sky130_ef_sc_hd__decap_12
XFILLER_59_93 vssd1 vssd1 vccd1 vccd1 sky130_fd_sc_hd__decap_4
XTAP_529 vssd1 vccd1 sky130_fd_sc_hd__tapvpwrvgnd_1
XTAP_518 vssd1 vccd1 sky130_fd_sc_hd__tapvpwrvgnd_1
XFILLER_38_139 vssd1 vssd1 vccd1 vccd1 sky130_fd_sc_hd__fill_1
X_1021_ _1021_/CLK _1021_/D vssd1 vssd1 vccd1 vccd1 _1021_/Q sky130_fd_sc_hd__dfxtp_1
XFILLER_46_150 vssd1 vssd1 vccd1 vccd1 sky130_fd_sc_hd__decap_4
XFILLER_34_301 vssd1 vssd1 vccd1 vccd1 sky130_fd_sc_hd__decap_6
XFILLER_19_353 vssd1 vssd1 vccd1 vccd1 sky130_fd_sc_hd__decap_4
X_0805_ _1008_/Q _0939_/Q _0820_/S vssd1 vssd1 vccd1 vccd1 _0806_/B sky130_fd_sc_hd__mux2_1
XANTENNA__0599__A1 _0932_/Q vssd1 vssd1 vccd1 vccd1 sky130_fd_sc_hd__diode_2
X_0736_ _0736_/A vssd1 vssd1 vccd1 vccd1 _0986_/D sky130_fd_sc_hd__clkbuf_1
X_0667_ _0688_/A _0667_/B vssd1 vssd1 vccd1 vccd1 _0668_/A sky130_fd_sc_hd__and2_1
X_0598_ _0598_/A vssd1 vssd1 vccd1 vccd1 _0931_/D sky130_fd_sc_hd__clkbuf_1
XFILLER_37_161 vssd1 vssd1 vccd1 vccd1 sky130_fd_sc_hd__decap_6
XFILLER_52_197 vssd1 vssd1 vccd1 vccd1 sky130_fd_sc_hd__decap_8
XFILLER_52_153 vssd1 vccd1 vccd1 vssd1 sky130_ef_sc_hd__decap_12
XFILLER_40_359 vssd1 vssd1 vccd1 vccd1 sky130_fd_sc_hd__decap_4
XANTENNA__0441__A _0963_/Q vssd1 vssd1 vccd1 vccd1 sky130_fd_sc_hd__diode_2
XFILLER_20_65 vssd1 vccd1 vccd1 vssd1 sky130_ef_sc_hd__decap_12
XFILLER_45_84 vssd1 vssd1 vccd1 vccd1 sky130_fd_sc_hd__decap_4
XFILLER_45_51 vssd1 vssd1 vccd1 vccd1 sky130_fd_sc_hd__decap_4
XFILLER_43_164 vssd1 vssd1 vccd1 vccd1 sky130_fd_sc_hd__decap_4
XFILLER_28_194 vssd1 vssd1 vccd1 vccd1 sky130_fd_sc_hd__fill_2
XFILLER_28_183 vssd1 vssd1 vccd1 vccd1 sky130_fd_sc_hd__fill_1
XANTENNA_input18_A m_wb_adr[22] vssd1 vssd1 vccd1 vccd1 sky130_fd_sc_hd__diode_2
XFILLER_16_334 vssd1 vssd1 vccd1 vccd1 sky130_fd_sc_hd__decap_4
XFILLER_61_94 vssd1 vccd1 vccd1 vssd1 sky130_ef_sc_hd__decap_12
XANTENNA__0450__A0 _0878_/Q vssd1 vssd1 vccd1 vccd1 sky130_fd_sc_hd__diode_2
XFILLER_31_337 vssd1 vccd1 vccd1 vssd1 sky130_ef_sc_hd__decap_12
XANTENNA_output86_A _0985_/Q vssd1 vssd1 vccd1 vccd1 sky130_fd_sc_hd__diode_2
X_0452_ _0879_/Q input52/X _0460_/S vssd1 vssd1 vccd1 vccd1 _0453_/A sky130_fd_sc_hd__mux2_1
XANTENNA__0753__A1 _0923_/Q vssd1 vssd1 vccd1 vccd1 sky130_fd_sc_hd__diode_2
XTAP_348 vssd1 vccd1 sky130_fd_sc_hd__tapvpwrvgnd_1
XTAP_337 vssd1 vccd1 sky130_fd_sc_hd__tapvpwrvgnd_1
XTAP_326 vssd1 vccd1 sky130_fd_sc_hd__tapvpwrvgnd_1
XTAP_315 vssd1 vccd1 sky130_fd_sc_hd__tapvpwrvgnd_1
XTAP_304 vssd1 vccd1 sky130_fd_sc_hd__tapvpwrvgnd_1
X_0521_ _0521_/A input9/X input8/X vssd1 vssd1 vccd1 vccd1 _0524_/A sky130_fd_sc_hd__or3_1
XTAP_359 vssd1 vccd1 sky130_fd_sc_hd__tapvpwrvgnd_1
XFILLER_26_109 vssd1 vccd1 vccd1 vssd1 sky130_ef_sc_hd__decap_12
XFILLER_13_3 vssd1 vccd1 vccd1 vssd1 sky130_ef_sc_hd__decap_12
X_1004_ _1005_/CLK _1004_/D vssd1 vssd1 vccd1 vccd1 _1004_/Q sky130_fd_sc_hd__dfxtp_1
XFILLER_34_197 vssd1 vccd1 vccd1 vssd1 sky130_ef_sc_hd__decap_12
XFILLER_34_153 vssd1 vccd1 vccd1 vssd1 sky130_ef_sc_hd__decap_12
XFILLER_57_234 vssd1 vssd1 vccd1 vccd1 sky130_fd_sc_hd__decap_4
XFILLER_57_223 vssd1 vssd1 vccd1 vccd1 sky130_fd_sc_hd__fill_1
XFILLER_57_201 vssd1 vssd1 vccd1 vccd1 sky130_fd_sc_hd__fill_1
X_0719_ _0738_/A _0980_/Q vssd1 vssd1 vccd1 vccd1 _0720_/A sky130_fd_sc_hd__and2_1
XFILLER_25_175 vssd1 vssd1 vccd1 vccd1 sky130_fd_sc_hd__fill_1
XFILLER_40_156 vssd1 vccd1 vccd1 vssd1 sky130_ef_sc_hd__decap_12
XFILLER_40_145 vssd1 vssd1 vccd1 vccd1 sky130_fd_sc_hd__decap_8
XFILLER_21_381 vssd1 vssd1 vccd1 vccd1 sky130_fd_sc_hd__fill_1
XFILLER_13_337 vssd1 vssd1 vccd1 vccd1 sky130_fd_sc_hd__decap_8
Xoutput75 _0979_/Q vssd1 vssd1 vccd1 vccd1 m_wb_i_dat[15] sky130_fd_sc_hd__buf_2
Xoutput97 _1025_/Q vssd1 vssd1 vccd1 vccd1 s_wb_adr[19] sky130_fd_sc_hd__buf_2
Xoutput86 _0985_/Q vssd1 vssd1 vccd1 vccd1 s_wb_8_burst sky130_fd_sc_hd__buf_2
XFILLER_56_83 vssd1 vssd1 vccd1 vccd1 sky130_fd_sc_hd__fill_1
XFILLER_0_285 vssd1 vssd1 vccd1 vccd1 sky130_fd_sc_hd__decap_4
XFILLER_31_167 vssd1 vssd1 vccd1 vccd1 sky130_fd_sc_hd__fill_1
XFILLER_16_164 vssd1 vssd1 vccd1 vccd1 sky130_fd_sc_hd__decap_4
XFILLER_8_374 vssd1 vssd1 vccd1 vccd1 sky130_fd_sc_hd__decap_6
X_0504_ _0900_/Q _0512_/B vssd1 vssd1 vccd1 vccd1 _0504_/Y sky130_fd_sc_hd__nand2_1
XTAP_156 vssd1 vccd1 sky130_fd_sc_hd__tapvpwrvgnd_1
XTAP_145 vssd1 vccd1 sky130_fd_sc_hd__tapvpwrvgnd_1
XTAP_134 vssd1 vccd1 sky130_fd_sc_hd__tapvpwrvgnd_1
XTAP_167 vssd1 vccd1 sky130_fd_sc_hd__tapvpwrvgnd_1
XTAP_178 vssd1 vccd1 sky130_fd_sc_hd__tapvpwrvgnd_1
XTAP_189 vssd1 vccd1 sky130_fd_sc_hd__tapvpwrvgnd_1
XFILLER_39_289 vssd1 vssd1 vccd1 vccd1 sky130_fd_sc_hd__fill_1
XFILLER_22_167 vssd1 vssd1 vccd1 vccd1 sky130_fd_sc_hd__fill_1
XFILLER_10_307 vssd1 vssd1 vccd1 vccd1 sky130_fd_sc_hd__fill_1
XFILLER_45_215 vssd1 vssd1 vccd1 vccd1 sky130_fd_sc_hd__decap_8
XFILLER_45_237 vssd1 vccd1 vccd1 vssd1 sky130_ef_sc_hd__decap_12
XFILLER_26_97 vssd1 vccd1 vccd1 vssd1 sky130_ef_sc_hd__decap_12
XFILLER_26_53 vssd1 vccd1 vccd1 vssd1 sky130_ef_sc_hd__decap_12
XFILLER_42_41 vssd1 vccd1 vccd1 vssd1 sky130_ef_sc_hd__decap_12
XFILLER_9_138 vssd1 vssd1 vccd1 vccd1 sky130_fd_sc_hd__decap_4
XANTENNA__0708__A1 _0892_/Q vssd1 vssd1 vccd1 vccd1 sky130_fd_sc_hd__diode_2
XFILLER_3_79 vssd1 vssd1 vccd1 vccd1 sky130_fd_sc_hd__decap_4
XFILLER_3_57 vssd1 vssd1 vccd1 vccd1 sky130_fd_sc_hd__fill_2
XFILLER_3_46 vssd1 vssd1 vccd1 vccd1 sky130_fd_sc_hd__decap_4
XFILLER_5_388 vssd1 vssd1 vccd1 vccd1 sky130_fd_sc_hd__decap_4
X_0984_ _1027_/CLK _0984_/D vssd1 vssd1 vccd1 vccd1 _0984_/Q sky130_fd_sc_hd__dfxtp_1
XANTENNA__0804__A _0874_/A vssd1 vssd1 vccd1 vccd1 sky130_fd_sc_hd__diode_2
XFILLER_8_171 vssd1 vssd1 vccd1 vccd1 sky130_fd_sc_hd__decap_4
XFILLER_42_207 vssd1 vssd1 vccd1 vccd1 sky130_fd_sc_hd__decap_4
XFILLER_27_237 vssd1 vccd1 vccd1 vssd1 sky130_ef_sc_hd__decap_12
XFILLER_10_126 vssd1 vccd1 vccd1 vssd1 sky130_ef_sc_hd__decap_12
XFILLER_12_77 vssd1 vssd1 vccd1 vccd1 sky130_fd_sc_hd__decap_6
XFILLER_2_347 vssd1 vssd1 vccd1 vccd1 sky130_fd_sc_hd__decap_4
XANTENNA__0595__S _0613_/S vssd1 vssd1 vccd1 vccd1 sky130_fd_sc_hd__diode_2
XFILLER_53_51 vssd1 vssd1 vccd1 vccd1 sky130_fd_sc_hd__decap_4
XFILLER_5_196 vssd1 vssd1 vccd1 vccd1 sky130_fd_sc_hd__decap_8
XFILLER_49_373 vssd1 vccd1 vccd1 vssd1 sky130_ef_sc_hd__decap_12
XFILLER_1_391 vssd1 vssd1 vccd1 vccd1 sky130_fd_sc_hd__fill_1
XFILLER_64_321 vssd1 vssd1 vccd1 vccd1 sky130_fd_sc_hd__decap_4
XANTENNA__0518__B _0874_/A vssd1 vssd1 vccd1 vccd1 sky130_fd_sc_hd__diode_2
XFILLER_17_281 vssd1 vssd1 vccd1 vccd1 sky130_fd_sc_hd__fill_1
X_0967_ _0973_/CLK _0967_/D vssd1 vssd1 vccd1 vccd1 _0967_/Q sky130_fd_sc_hd__dfxtp_1
XFILLER_58_29 vssd1 vccd1 vccd1 vssd1 sky130_ef_sc_hd__decap_12
X_0898_ _1021_/CLK _0898_/D vssd1 vssd1 vccd1 vccd1 _0898_/Q sky130_fd_sc_hd__dfxtp_1
XFILLER_7_406 vssd1 vssd1 vccd1 vccd1 sky130_fd_sc_hd__fill_1
XFILLER_48_95 vssd1 vssd1 vccd1 vccd1 sky130_fd_sc_hd__decap_4
XFILLER_2_188 vssd1 vssd1 vccd1 vccd1 sky130_fd_sc_hd__decap_8
XANTENNA_input48_A m_wb_we vssd1 vssd1 vccd1 vccd1 sky130_fd_sc_hd__diode_2
XFILLER_64_72 vssd1 vssd1 vccd1 vccd1 sky130_fd_sc_hd__decap_4
XFILLER_46_365 vssd1 vssd1 vccd1 vccd1 sky130_fd_sc_hd__decap_8
XFILLER_46_321 vssd1 vccd1 vccd1 vssd1 sky130_ef_sc_hd__decap_12
X_0821_ _0834_/A _0821_/B vssd1 vssd1 vccd1 vccd1 _0822_/A sky130_fd_sc_hd__and2_1
X_0752_ _0752_/A vssd1 vssd1 vccd1 vccd1 _0991_/D sky130_fd_sc_hd__clkbuf_1
XFILLER_9_89 vssd1 vssd1 vccd1 vccd1 sky130_fd_sc_hd__decap_3
XFILLER_43_3 vssd1 vccd1 vccd1 vssd1 sky130_ef_sc_hd__decap_12
X_0683_ _0683_/A vssd1 vssd1 vccd1 vccd1 _0968_/D sky130_fd_sc_hd__clkbuf_1
XFILLER_49_181 vssd1 vccd1 vccd1 vssd1 sky130_ef_sc_hd__decap_12
XANTENNA__0529__A _0542_/B vssd1 vssd1 vccd1 vccd1 sky130_fd_sc_hd__diode_2
XFILLER_64_173 vssd1 vssd1 vccd1 vccd1 sky130_fd_sc_hd__fill_1
XFILLER_55_151 vssd1 vccd1 vccd1 vssd1 sky130_ef_sc_hd__decap_12
XFILLER_43_335 vssd1 vssd1 vccd1 vccd1 sky130_fd_sc_hd__fill_1
XFILLER_28_321 vssd1 vccd1 vccd1 vssd1 sky130_ef_sc_hd__decap_12
XFILLER_18_65 vssd1 vccd1 vccd1 vssd1 sky130_ef_sc_hd__decap_12
XFILLER_50_41 vssd1 vccd1 vccd1 vssd1 sky130_ef_sc_hd__decap_12
XFILLER_34_97 vssd1 vccd1 vccd1 vssd1 sky130_ef_sc_hd__decap_12
XFILLER_34_53 vssd1 vccd1 vccd1 vssd1 sky130_ef_sc_hd__decap_12
XFILLER_11_265 vssd1 vccd1 vccd1 vssd1 sky130_ef_sc_hd__decap_12
XTAP_519 vssd1 vccd1 sky130_fd_sc_hd__tapvpwrvgnd_1
XTAP_508 vssd1 vccd1 sky130_fd_sc_hd__tapvpwrvgnd_1
XFILLER_50_85 vssd1 vccd1 vccd1 vssd1 sky130_ef_sc_hd__decap_12
X_1020_ _1021_/CLK _1020_/D vssd1 vssd1 vccd1 vccd1 _1020_/Q sky130_fd_sc_hd__dfxtp_1
XFILLER_61_187 vssd1 vssd1 vccd1 vccd1 sky130_fd_sc_hd__fill_1
XFILLER_61_176 vssd1 vssd1 vccd1 vccd1 sky130_fd_sc_hd__decap_4
XFILLER_61_154 vssd1 vccd1 vccd1 vssd1 sky130_ef_sc_hd__decap_12
X_0804_ _0874_/A vssd1 vssd1 vccd1 vccd1 _0834_/A sky130_fd_sc_hd__clkbuf_2
X_0735_ _0738_/A _0735_/B vssd1 vssd1 vccd1 vccd1 _0736_/A sky130_fd_sc_hd__and2_1
XFILLER_57_405 vssd1 vssd1 vccd1 vccd1 sky130_fd_sc_hd__fill_2
X_0666_ _0963_/Q _0878_/Q _0690_/S vssd1 vssd1 vccd1 vccd1 _0667_/B sky130_fd_sc_hd__mux2_1
X_0597_ input30/X _0931_/Q _0613_/S vssd1 vssd1 vccd1 vccd1 _0598_/A sky130_fd_sc_hd__mux2_1
XFILLER_52_121 vssd1 vssd1 vccd1 vccd1 sky130_fd_sc_hd__decap_4
XFILLER_25_335 vssd1 vssd1 vccd1 vccd1 sky130_fd_sc_hd__fill_1
XFILLER_52_165 vssd1 vssd1 vccd1 vccd1 sky130_fd_sc_hd__decap_6
XFILLER_40_338 vssd1 vssd1 vccd1 vccd1 sky130_fd_sc_hd__decap_6
XFILLER_4_217 vssd1 vssd1 vccd1 vccd1 sky130_fd_sc_hd__decap_6
XFILLER_4_239 vssd1 vssd1 vccd1 vccd1 sky130_fd_sc_hd__decap_4
XFILLER_20_77 vssd1 vssd1 vccd1 vccd1 sky130_fd_sc_hd__decap_6
XFILLER_43_121 vssd1 vssd1 vccd1 vccd1 sky130_fd_sc_hd__fill_2
XFILLER_31_349 vssd1 vccd1 vccd1 vssd1 sky130_ef_sc_hd__decap_12
XFILLER_31_305 vssd1 vssd1 vccd1 vccd1 sky130_fd_sc_hd__fill_2
XFILLER_16_302 vssd1 vssd1 vccd1 vccd1 sky130_fd_sc_hd__decap_6
XFILLER_61_51 vssd1 vssd1 vccd1 vccd1 sky130_fd_sc_hd__decap_4
X_0451_ _0451_/A vssd1 vssd1 vccd1 vccd1 _0878_/D sky130_fd_sc_hd__clkbuf_1
XFILLER_39_405 vssd1 vssd1 vccd1 vccd1 sky130_fd_sc_hd__fill_2
XTAP_349 vssd1 vccd1 sky130_fd_sc_hd__tapvpwrvgnd_1
XTAP_338 vssd1 vccd1 sky130_fd_sc_hd__tapvpwrvgnd_1
XTAP_327 vssd1 vccd1 sky130_fd_sc_hd__tapvpwrvgnd_1
XTAP_316 vssd1 vccd1 sky130_fd_sc_hd__tapvpwrvgnd_1
XTAP_305 vssd1 vccd1 sky130_fd_sc_hd__tapvpwrvgnd_1
XFILLER_3_272 vssd1 vssd1 vccd1 vccd1 sky130_fd_sc_hd__decap_8
X_0520_ _0876_/Q vssd1 vssd1 vccd1 vccd1 _0520_/Y sky130_fd_sc_hd__inv_2
X_1003_ _1030_/CLK _1003_/D vssd1 vssd1 vccd1 vccd1 _1003_/Q sky130_fd_sc_hd__dfxtp_1
XFILLER_34_121 vssd1 vccd1 vccd1 vssd1 sky130_ef_sc_hd__decap_12
XFILLER_34_165 vssd1 vccd1 vccd1 vssd1 sky130_ef_sc_hd__decap_12
X_0718_ _0718_/A vssd1 vssd1 vccd1 vccd1 _0980_/D sky130_fd_sc_hd__clkbuf_1
X_0649_ _0522_/A _0956_/Q _0655_/S vssd1 vssd1 vccd1 vccd1 _0650_/A sky130_fd_sc_hd__mux2_1
XANTENNA__0717__A _0983_/Q vssd1 vssd1 vccd1 vccd1 sky130_fd_sc_hd__diode_2
XFILLER_13_305 vssd1 vssd1 vccd1 vccd1 sky130_fd_sc_hd__fill_1
XFILLER_15_55 vssd1 vssd1 vccd1 vccd1 sky130_fd_sc_hd__fill_1
XFILLER_40_168 vssd1 vssd1 vccd1 vccd1 sky130_fd_sc_hd__decap_6
XFILLER_21_393 vssd1 vccd1 vccd1 vssd1 sky130_ef_sc_hd__decap_12
Xoutput87 _1006_/Q vssd1 vssd1 vccd1 vccd1 s_wb_adr[0] sky130_fd_sc_hd__buf_2
Xoutput98 _1007_/Q vssd1 vssd1 vccd1 vccd1 s_wb_adr[1] sky130_fd_sc_hd__buf_2
XFILLER_0_220 vssd1 vssd1 vccd1 vccd1 sky130_fd_sc_hd__decap_4
Xoutput76 _0965_/Q vssd1 vssd1 vccd1 vccd1 m_wb_i_dat[1] sky130_fd_sc_hd__buf_2
XANTENNA_output117_A _1004_/Q vssd1 vssd1 vccd1 vccd1 sky130_fd_sc_hd__diode_2
XANTENNA_input30_A m_wb_o_dat[10] vssd1 vssd1 vccd1 vccd1 sky130_fd_sc_hd__diode_2
XFILLER_16_121 vssd1 vccd1 vccd1 vssd1 sky130_ef_sc_hd__decap_12
XFILLER_31_113 vssd1 vccd1 vccd1 vssd1 sky130_ef_sc_hd__decap_12
XFILLER_8_397 vssd1 vssd1 vccd1 vccd1 sky130_fd_sc_hd__decap_4
X_0503_ _0899_/Q _0460_/S _0512_/B _0738_/A vssd1 vssd1 vccd1 vccd1 _0899_/D sky130_fd_sc_hd__o211a_1
XTAP_157 vssd1 vccd1 sky130_fd_sc_hd__tapvpwrvgnd_1
XTAP_146 vssd1 vccd1 sky130_fd_sc_hd__tapvpwrvgnd_1
XTAP_135 vssd1 vccd1 sky130_fd_sc_hd__tapvpwrvgnd_1
XTAP_168 vssd1 vccd1 sky130_fd_sc_hd__tapvpwrvgnd_1
XTAP_179 vssd1 vccd1 sky130_fd_sc_hd__tapvpwrvgnd_1
XFILLER_62_260 vssd1 vssd1 vccd1 vccd1 sky130_fd_sc_hd__fill_1
XFILLER_39_279 vssd1 vssd1 vccd1 vccd1 sky130_fd_sc_hd__fill_1
XANTENNA__0537__A _0560_/B vssd1 vssd1 vccd1 vccd1 sky130_fd_sc_hd__diode_2
XFILLER_45_249 vssd1 vssd1 vccd1 vccd1 sky130_fd_sc_hd__decap_4
XFILLER_45_205 vssd1 vssd1 vccd1 vccd1 sky130_fd_sc_hd__decap_4
XFILLER_42_53 vssd1 vccd1 vccd1 vssd1 sky130_ef_sc_hd__decap_12
XFILLER_26_65 vssd1 vccd1 vccd1 vssd1 sky130_ef_sc_hd__decap_12
XFILLER_9_128 vssd1 vssd1 vccd1 vccd1 sky130_fd_sc_hd__fill_1
X_0983_ _0983_/CLK _0983_/D vssd1 vssd1 vccd1 vccd1 _0983_/Q sky130_fd_sc_hd__dfxtp_1
XFILLER_27_249 vssd1 vccd1 vccd1 vssd1 sky130_ef_sc_hd__decap_12
XFILLER_42_219 vssd1 vssd1 vccd1 vccd1 sky130_fd_sc_hd__decap_4
XFILLER_10_105 vssd1 vssd1 vccd1 vccd1 sky130_fd_sc_hd__decap_3
XFILLER_2_304 vssd1 vssd1 vccd1 vccd1 sky130_fd_sc_hd__decap_4
XFILLER_6_109 vssd1 vssd1 vccd1 vccd1 sky130_fd_sc_hd__decap_4
XFILLER_10_138 vssd1 vssd1 vccd1 vccd1 sky130_fd_sc_hd__fill_2
XFILLER_10_149 vssd1 vssd1 vccd1 vccd1 sky130_fd_sc_hd__fill_2
XFILLER_58_363 vssd1 vssd1 vccd1 vccd1 sky130_fd_sc_hd__fill_1
XANTENNA__0626__A1 _0945_/Q vssd1 vssd1 vccd1 vccd1 sky130_fd_sc_hd__diode_2
Xclkbuf_3_4__f_clk_s clkbuf_0_clk_s/X vssd1 vssd1 vccd1 vccd1 _1029_/CLK sky130_fd_sc_hd__clkbuf_16
XFILLER_5_131 vssd1 vssd1 vccd1 vccd1 sky130_fd_sc_hd__decap_6
XFILLER_5_153 vssd1 vssd1 vccd1 vccd1 sky130_fd_sc_hd__decap_4
XFILLER_5_175 vssd1 vssd1 vccd1 vccd1 sky130_fd_sc_hd__decap_8
XANTENNA__0562__B1 _0738_/A vssd1 vssd1 vccd1 vccd1 sky130_fd_sc_hd__diode_2
XFILLER_49_385 vssd1 vssd1 vccd1 vccd1 sky130_fd_sc_hd__decap_6
XFILLER_64_388 vssd1 vssd1 vccd1 vccd1 sky130_fd_sc_hd__decap_4
XFILLER_20_403 vssd1 vssd1 vccd1 vccd1 sky130_fd_sc_hd__decap_4
X_0897_ _1024_/CLK _0897_/D vssd1 vssd1 vccd1 vccd1 _0897_/Q sky130_fd_sc_hd__dfxtp_1
X_0966_ _0966_/CLK _0966_/D vssd1 vssd1 vccd1 vccd1 _0966_/Q sky130_fd_sc_hd__dfxtp_1
XFILLER_59_138 vssd1 vssd1 vccd1 vccd1 sky130_fd_sc_hd__decap_8
XFILLER_23_263 vssd1 vssd1 vccd1 vccd1 sky130_fd_sc_hd__decap_8
XFILLER_23_55 vssd1 vssd1 vccd1 vccd1 sky130_fd_sc_hd__fill_1
XANTENNA__0792__A0 _1004_/Q vssd1 vssd1 vccd1 vccd1 sky130_fd_sc_hd__diode_2
XFILLER_3_3 vssd1 vccd1 vccd1 vssd1 sky130_ef_sc_hd__decap_12
XFILLER_2_156 vssd1 vssd1 vccd1 vccd1 sky130_fd_sc_hd__decap_8
XFILLER_2_101 vssd1 vssd1 vccd1 vccd1 sky130_fd_sc_hd__decap_4
XFILLER_58_171 vssd1 vssd1 vccd1 vccd1 sky130_fd_sc_hd__decap_8
XFILLER_48_85 vssd1 vssd1 vccd1 vccd1 sky130_fd_sc_hd__fill_1
XFILLER_48_41 vssd1 vccd1 vccd1 vssd1 sky130_ef_sc_hd__decap_12
XFILLER_46_333 vssd1 vssd1 vccd1 vccd1 sky130_fd_sc_hd__decap_8
XFILLER_2_178 vssd1 vssd1 vccd1 vccd1 sky130_fd_sc_hd__fill_1
XFILLER_0_59 vssd1 vssd1 vccd1 vccd1 sky130_fd_sc_hd__decap_4
XFILLER_14_241 vssd1 vssd1 vccd1 vccd1 sky130_fd_sc_hd__decap_8
X_0820_ _1013_/Q _0944_/Q _0820_/S vssd1 vssd1 vccd1 vccd1 _0821_/B sky130_fd_sc_hd__mux2_1
X_0751_ _0770_/A _0751_/B vssd1 vssd1 vccd1 vccd1 _0752_/A sky130_fd_sc_hd__and2_1
XFILLER_9_57 vssd1 vccd1 vccd1 vssd1 sky130_ef_sc_hd__decap_12
XFILLER_36_3 vssd1 vccd1 vccd1 vssd1 sky130_ef_sc_hd__decap_12
X_0682_ _0688_/A _0682_/B vssd1 vssd1 vccd1 vccd1 _0683_/A sky130_fd_sc_hd__and2_1
XFILLER_64_141 vssd1 vssd1 vccd1 vccd1 sky130_fd_sc_hd__decap_3
XFILLER_56_108 vssd1 vccd1 vccd1 vssd1 sky130_ef_sc_hd__decap_12
XFILLER_52_303 vssd1 vssd1 vccd1 vccd1 sky130_fd_sc_hd__decap_4
XFILLER_49_193 vssd1 vssd1 vccd1 vccd1 sky130_fd_sc_hd__decap_6
XANTENNA__0529__B _0723_/B vssd1 vssd1 vccd1 vccd1 sky130_fd_sc_hd__diode_2
XFILLER_20_200 vssd1 vssd1 vccd1 vccd1 sky130_fd_sc_hd__decap_4
X_0949_ _0956_/CLK _0949_/D vssd1 vssd1 vccd1 vccd1 _0949_/Q sky130_fd_sc_hd__dfxtp_1
XFILLER_28_333 vssd1 vccd1 vccd1 vssd1 sky130_ef_sc_hd__decap_12
XFILLER_55_185 vssd1 vssd1 vccd1 vccd1 sky130_fd_sc_hd__fill_1
XFILLER_55_163 vssd1 vssd1 vccd1 vccd1 sky130_fd_sc_hd__decap_4
XFILLER_55_130 vssd1 vssd1 vccd1 vccd1 sky130_fd_sc_hd__fill_1
XFILLER_18_77 vssd1 vssd1 vccd1 vccd1 sky130_fd_sc_hd__decap_6
XFILLER_51_380 vssd1 vccd1 vccd1 vssd1 sky130_ef_sc_hd__decap_12
XFILLER_50_53 vssd1 vccd1 vccd1 vssd1 sky130_ef_sc_hd__decap_12
XFILLER_34_65 vssd1 vccd1 vccd1 vssd1 sky130_ef_sc_hd__decap_12
XFILLER_11_211 vssd1 vssd1 vccd1 vccd1 sky130_fd_sc_hd__decap_4
XFILLER_11_277 vssd1 vssd1 vccd1 vccd1 sky130_fd_sc_hd__decap_3
XANTENNA_input60_A s_wb_i_dat[2] vssd1 vssd1 vccd1 vccd1 sky130_fd_sc_hd__diode_2
XFILLER_59_51 vssd1 vssd1 vccd1 vccd1 sky130_fd_sc_hd__decap_4
XTAP_509 vssd1 vccd1 sky130_fd_sc_hd__tapvpwrvgnd_1
XFILLER_50_97 vssd1 vccd1 vccd1 vssd1 sky130_ef_sc_hd__decap_12
XFILLER_46_185 vssd1 vssd1 vccd1 vccd1 sky130_fd_sc_hd__decap_4
XFILLER_61_166 vssd1 vssd1 vccd1 vccd1 sky130_fd_sc_hd__fill_2
XFILLER_34_369 vssd1 vssd1 vccd1 vccd1 sky130_fd_sc_hd__fill_1
X_0734_ _0986_/Q _0917_/Q _0756_/S vssd1 vssd1 vccd1 vccd1 _0735_/B sky130_fd_sc_hd__mux2_1
X_0803_ _0803_/A vssd1 vssd1 vccd1 vccd1 _1007_/D sky130_fd_sc_hd__clkbuf_1
XANTENNA__0756__A0 _0993_/Q vssd1 vssd1 vccd1 vccd1 sky130_fd_sc_hd__diode_2