*SPEF "ieee 1481-1999"
*DESIGN "alu"
*DATE "11:11:11 Fri 11 11, 1111"
*VENDOR "OpenRCX"
*PROGRAM "Parallel Extraction"
*VERSION "1.0"
*DESIGN_FLOW "NAME_SCOPE LOCAL" "PIN_CAP NONE"
*DIVIDER /
*DELIMITER :
*BUS_DELIMITER []
*T_UNIT 1 NS
*C_UNIT 1 PF
*R_UNIT 1 OHM
*L_UNIT 1 HENRY

*NAME_MAP
*1 i_carry
*2 i_l[0]
*3 i_l[10]
*4 i_l[11]
*5 i_l[12]
*6 i_l[13]
*7 i_l[14]
*8 i_l[15]
*9 i_l[1]
*10 i_l[2]
*11 i_l[3]
*12 i_l[4]
*13 i_l[5]
*14 i_l[6]
*15 i_l[7]
*16 i_l[8]
*17 i_l[9]
*18 i_mode[0]
*19 i_mode[1]
*20 i_mode[2]
*21 i_mode[3]
*22 i_r[0]
*23 i_r[10]
*24 i_r[11]
*25 i_r[12]
*26 i_r[13]
*27 i_r[14]
*28 i_r[15]
*29 i_r[1]
*30 i_r[2]
*31 i_r[3]
*32 i_r[4]
*33 i_r[5]
*34 i_r[6]
*35 i_r[7]
*36 i_r[8]
*37 i_r[9]
*38 o_flags[0]
*39 o_flags[1]
*40 o_flags[2]
*41 o_flags[3]
*42 o_flags[4]
*43 o_out[0]
*44 o_out[10]
*45 o_out[11]
*46 o_out[12]
*47 o_out[13]
*48 o_out[14]
*49 o_out[15]
*50 o_out[1]
*51 o_out[2]
*52 o_out[3]
*53 o_out[4]
*54 o_out[5]
*55 o_out[6]
*56 o_out[7]
*57 o_out[8]
*58 o_out[9]
*61 _0000_
*62 _0001_
*63 _0002_
*64 _0003_
*65 _0004_
*66 _0005_
*67 _0006_
*68 _0007_
*69 _0008_
*70 _0009_
*71 _0010_
*72 _0011_
*73 _0012_
*74 _0013_
*75 _0014_
*76 _0015_
*77 _0016_
*78 _0017_
*79 _0018_
*80 _0019_
*81 _0020_
*82 _0021_
*83 _0022_
*84 _0023_
*85 _0024_
*86 _0025_
*87 _0026_
*88 _0027_
*89 _0028_
*90 _0029_
*91 _0030_
*92 _0031_
*93 _0032_
*94 _0033_
*95 _0034_
*96 _0035_
*97 _0036_
*98 _0037_
*99 _0038_
*100 _0039_
*101 _0040_
*102 _0041_
*103 _0042_
*104 _0043_
*105 _0044_
*106 _0045_
*107 _0046_
*108 _0047_
*109 _0048_
*110 _0049_
*111 _0050_
*112 _0051_
*113 _0052_
*114 _0053_
*115 _0054_
*116 _0055_
*117 _0056_
*118 _0057_
*119 _0058_
*120 _0059_
*121 _0060_
*122 _0061_
*123 _0062_
*124 _0063_
*125 _0064_
*126 _0065_
*127 _0066_
*128 _0067_
*129 _0068_
*130 _0069_
*131 _0070_
*132 _0071_
*133 _0072_
*134 _0073_
*135 _0074_
*136 _0075_
*137 _0076_
*138 _0077_
*139 _0078_
*140 _0079_
*141 _0080_
*142 _0081_
*143 _0082_
*144 _0083_
*145 _0084_
*146 _0085_
*147 _0086_
*148 _0087_
*149 _0088_
*150 _0089_
*151 _0090_
*152 _0091_
*153 _0092_
*154 _0093_
*155 _0094_
*156 _0095_
*157 _0096_
*158 _0097_
*159 _0098_
*160 _0099_
*161 _0100_
*162 _0101_
*163 _0102_
*164 _0103_
*165 _0104_
*166 _0105_
*167 _0106_
*168 _0107_
*169 _0108_
*170 _0109_
*171 _0110_
*172 _0111_
*173 _0112_
*174 _0113_
*175 _0114_
*176 _0115_
*177 _0116_
*178 _0117_
*179 _0118_
*180 _0119_
*181 _0120_
*182 _0121_
*183 _0122_
*184 _0123_
*185 _0124_
*186 _0125_
*187 _0126_
*188 _0127_
*189 _0128_
*190 _0129_
*191 _0130_
*192 _0131_
*193 _0132_
*194 _0133_
*195 _0134_
*196 _0135_
*197 _0136_
*198 _0137_
*199 _0138_
*200 _0139_
*201 _0140_
*202 _0141_
*203 _0142_
*204 _0143_
*205 _0144_
*206 _0145_
*207 _0146_
*208 _0147_
*209 _0148_
*210 _0149_
*211 _0150_
*212 _0151_
*213 _0152_
*214 _0153_
*215 _0154_
*216 _0155_
*217 _0156_
*218 _0157_
*219 _0158_
*220 _0159_
*221 _0160_
*222 _0161_
*223 _0162_
*224 _0163_
*225 _0164_
*226 _0165_
*227 _0166_
*228 _0167_
*229 _0168_
*230 _0169_
*231 _0170_
*232 _0171_
*233 _0172_
*234 _0173_
*235 _0174_
*236 _0175_
*237 _0176_
*238 _0177_
*239 _0178_
*240 _0179_
*241 _0180_
*242 _0181_
*243 _0182_
*244 _0183_
*245 _0184_
*246 _0185_
*247 _0186_
*248 _0187_
*249 _0188_
*250 _0189_
*251 _0190_
*252 _0191_
*253 _0192_
*254 _0193_
*255 _0194_
*256 _0195_
*257 _0196_
*258 _0197_
*259 _0198_
*260 _0199_
*261 _0200_
*262 _0201_
*263 _0202_
*264 _0203_
*265 _0204_
*266 _0205_
*267 _0206_
*268 _0207_
*269 _0208_
*270 _0209_
*271 _0210_
*272 _0211_
*273 _0212_
*274 _0213_
*275 _0214_
*276 _0215_
*277 _0216_
*278 _0217_
*279 _0218_
*280 _0219_
*281 _0220_
*282 _0221_
*283 _0222_
*284 _0223_
*285 _0224_
*286 _0225_
*287 _0226_
*288 _0227_
*289 _0228_
*290 _0229_
*291 _0230_
*292 _0231_
*293 _0232_
*294 _0233_
*295 _0234_
*296 _0235_
*297 _0236_
*298 _0237_
*299 _0238_
*300 _0239_
*301 _0240_
*302 _0241_
*303 _0242_
*304 _0243_
*305 _0244_
*306 _0245_
*307 _0246_
*308 _0247_
*309 _0248_
*310 _0249_
*311 _0250_
*312 _0251_
*313 _0252_
*314 _0253_
*315 _0254_
*316 _0255_
*317 _0256_
*318 _0257_
*319 _0258_
*320 _0259_
*321 _0260_
*322 _0261_
*323 _0262_
*324 _0263_
*325 _0264_
*326 _0265_
*327 _0266_
*328 _0267_
*329 _0268_
*330 _0269_
*331 _0270_
*332 _0271_
*333 _0272_
*334 _0273_
*335 _0274_
*336 _0275_
*337 _0276_
*338 _0277_
*339 _0278_
*340 _0279_
*341 _0280_
*342 _0281_
*343 _0282_
*344 _0283_
*345 _0284_
*346 _0285_
*347 _0286_
*348 _0287_
*349 _0288_
*350 _0289_
*351 _0290_
*352 _0291_
*353 _0292_
*354 _0293_
*355 _0294_
*356 _0295_
*357 _0296_
*358 _0297_
*359 _0298_
*360 _0299_
*361 _0300_
*362 _0301_
*363 _0302_
*364 _0303_
*365 _0304_
*366 _0305_
*367 _0306_
*368 _0307_
*369 _0308_
*370 _0309_
*371 _0310_
*372 _0311_
*373 _0312_
*374 _0313_
*375 _0314_
*376 _0315_
*377 _0316_
*378 _0317_
*379 _0318_
*380 _0319_
*381 _0320_
*382 _0321_
*383 _0322_
*384 _0323_
*385 _0324_
*386 _0325_
*387 _0326_
*388 _0327_
*389 _0328_
*390 _0329_
*391 _0330_
*392 _0331_
*393 _0332_
*394 _0333_
*395 _0334_
*396 _0335_
*397 _0336_
*398 _0337_
*399 _0338_
*400 _0339_
*401 _0340_
*402 _0341_
*403 _0342_
*404 _0343_
*405 _0344_
*406 _0345_
*407 _0346_
*408 _0347_
*409 _0348_
*410 _0349_
*411 _0350_
*412 _0351_
*413 _0352_
*414 _0353_
*415 _0354_
*416 _0355_
*417 _0356_
*418 _0357_
*419 _0358_
*420 _0359_
*421 _0360_
*422 _0361_
*423 _0362_
*424 _0363_
*425 _0364_
*426 _0365_
*427 _0366_
*428 _0367_
*429 _0368_
*430 _0369_
*431 _0370_
*432 _0371_
*433 _0372_
*434 _0373_
*435 _0374_
*436 _0375_
*437 _0376_
*438 _0377_
*439 _0378_
*440 _0379_
*441 _0380_
*442 _0381_
*443 _0382_
*444 _0383_
*445 _0384_
*446 _0385_
*447 _0386_
*448 _0387_
*449 _0388_
*450 _0389_
*451 _0390_
*452 _0391_
*453 _0392_
*454 _0393_
*455 _0394_
*456 _0395_
*457 _0396_
*458 _0397_
*459 _0398_
*460 _0399_
*461 _0400_
*462 _0401_
*463 _0402_
*464 _0403_
*465 _0404_
*466 _0405_
*467 _0406_
*468 _0407_
*469 _0408_
*470 _0409_
*471 _0410_
*472 _0411_
*473 _0412_
*474 _0413_
*475 _0414_
*476 _0415_
*477 _0416_
*478 _0417_
*479 _0418_
*480 _0419_
*481 _0420_
*482 _0421_
*483 _0422_
*484 _0423_
*485 _0424_
*486 _0425_
*487 _0426_
*488 _0427_
*489 _0428_
*490 _0429_
*491 _0430_
*492 _0431_
*493 _0432_
*494 _0433_
*495 _0434_
*496 _0435_
*497 _0436_
*498 _0437_
*499 _0438_
*500 _0439_
*501 _0440_
*502 _0441_
*503 _0442_
*504 _0443_
*505 _0444_
*506 _0445_
*507 _0446_
*508 _0447_
*509 _0448_
*510 _0449_
*511 _0450_
*512 _0451_
*513 _0452_
*514 _0453_
*515 _0454_
*516 _0455_
*517 _0456_
*518 _0457_
*519 _0458_
*520 _0459_
*521 _0460_
*522 _0461_
*523 _0462_
*524 _0463_
*525 _0464_
*526 _0465_
*527 _0466_
*528 _0467_
*529 _0468_
*530 _0469_
*531 _0470_
*532 _0471_
*533 _0472_
*534 _0473_
*535 _0474_
*536 _0475_
*537 _0476_
*538 _0477_
*539 _0478_
*540 _0479_
*541 _0480_
*542 _0481_
*543 _0482_
*544 _0483_
*545 _0484_
*546 _0485_
*547 _0486_
*548 _0487_
*549 _0488_
*550 _0489_
*551 _0490_
*552 _0491_
*553 _0492_
*554 _0493_
*555 _0494_
*556 _0495_
*557 _0496_
*558 _0497_
*559 _0498_
*560 _0499_
*561 _0500_
*562 _0501_
*563 _0502_
*564 _0503_
*565 _0504_
*566 _0505_
*567 _0506_
*568 _0507_
*569 _0508_
*570 _0509_
*571 _0510_
*572 _0511_
*573 _0512_
*574 _0513_
*575 _0514_
*576 _0515_
*577 _0516_
*578 _0517_
*579 _0518_
*580 _0519_
*581 _0520_
*582 _0521_
*583 _0522_
*584 _0523_
*585 _0524_
*586 _0525_
*587 _0526_
*588 _0527_
*589 _0528_
*590 _0529_
*591 _0530_
*592 _0531_
*593 _0532_
*594 _0533_
*595 _0534_
*596 _0535_
*597 _0536_
*598 _0537_
*599 _0538_
*600 _0539_
*601 _0540_
*602 _0541_
*603 _0542_
*604 _0543_
*605 _0544_
*606 _0545_
*607 _0546_
*608 _0547_
*609 _0548_
*610 _0549_
*611 _0550_
*612 _0551_
*613 _0552_
*614 _0553_
*615 _0554_
*616 _0555_
*617 _0556_
*618 _0557_
*619 _0558_
*620 _0559_
*621 _0560_
*622 _0561_
*623 _0562_
*624 _0563_
*625 _0564_
*626 _0565_
*627 _0566_
*628 _0567_
*629 _0568_
*630 _0569_
*631 _0570_
*632 _0571_
*633 _0572_
*634 _0573_
*635 _0574_
*636 _0575_
*637 _0576_
*638 _0577_
*639 net1
*640 net10
*641 net11
*642 net12
*643 net13
*644 net14
*645 net15
*646 net16
*647 net17
*648 net18
*649 net19
*650 net2
*651 net20
*652 net21
*653 net22
*654 net23
*655 net24
*656 net25
*657 net26
*658 net27
*659 net28
*660 net29
*661 net3
*662 net30
*663 net31
*664 net32
*665 net33
*666 net34
*667 net35
*668 net36
*669 net37
*670 net38
*671 net39
*672 net4
*673 net40
*674 net41
*675 net42
*676 net43
*677 net44
*678 net45
*679 net46
*680 net47
*681 net48
*682 net49
*683 net5
*684 net50
*685 net51
*686 net52
*687 net53
*688 net54
*689 net55
*690 net56
*691 net57
*692 net58
*693 net6
*694 net7
*695 net8
*696 net9
*697 ANTENNA__0578__A
*698 ANTENNA__0579__A
*699 ANTENNA__0579__B
*700 ANTENNA__0579__D
*701 ANTENNA__0580__C
*702 ANTENNA__0580__D
*703 ANTENNA__0582__A
*704 ANTENNA__0583__A
*705 ANTENNA__0583__B
*706 ANTENNA__0583__C
*707 ANTENNA__0583__D
*708 ANTENNA__0584__A
*709 ANTENNA__0584__B
*710 ANTENNA__0584__C
*711 ANTENNA__0584__D
*712 ANTENNA__0585__A
*713 ANTENNA__0585__B
*714 ANTENNA__0586__A
*715 ANTENNA__0587__A1
*716 ANTENNA__0587__B1
*717 ANTENNA__0587__C1
*718 ANTENNA__0588__A
*719 ANTENNA__0589__A1
*720 ANTENNA__0592__A
*721 ANTENNA__0593__A
*722 ANTENNA__0595__C
*723 ANTENNA__0595__D
*724 ANTENNA__0597__A
*725 ANTENNA__0598__A
*726 ANTENNA__0601__A
*727 ANTENNA__0602__A
*728 ANTENNA__0602__B
*729 ANTENNA__0602__C
*730 ANTENNA__0604__A
*731 ANTENNA__0605__A1
*732 ANTENNA__0605__S
*733 ANTENNA__0607__A0
*734 ANTENNA__0607__A1
*735 ANTENNA__0607__S
*736 ANTENNA__0610__A
*737 ANTENNA__0611__S
*738 ANTENNA__0612__A0
*739 ANTENNA__0612__A1
*740 ANTENNA__0612__S
*741 ANTENNA__0616__A0
*742 ANTENNA__0616__A1
*743 ANTENNA__0616__S
*744 ANTENNA__0618__S
*745 ANTENNA__0619__A
*746 ANTENNA__0623__B1
*747 ANTENNA__0625__A
*748 ANTENNA__0629__A0
*749 ANTENNA__0629__A1
*750 ANTENNA__0629__S
*751 ANTENNA__0630__A
*752 ANTENNA__0631__B
*753 ANTENNA__0632__A1
*754 ANTENNA__0632__A2
*755 ANTENNA__0632__C1
*756 ANTENNA__0633__A1
*757 ANTENNA__0634__A0
*758 ANTENNA__0634__A1
*759 ANTENNA__0634__S
*760 ANTENNA__0636__A
*761 ANTENNA__0637__A0
*762 ANTENNA__0637__A1
*763 ANTENNA__0637__S
*764 ANTENNA__0639__S
*765 ANTENNA__0642__A
*766 ANTENNA__0646__B
*767 ANTENNA__0650__B
*768 ANTENNA__0651__A1
*769 ANTENNA__0651__A2
*770 ANTENNA__0651__B2
*771 ANTENNA__0652__A1
*772 ANTENNA__0654__A2
*773 ANTENNA__0656__B
*774 ANTENNA__0658__B
*775 ANTENNA__0660__A1
*776 ANTENNA__0661__A
*777 ANTENNA__0662__A2_N
*778 ANTENNA__0666__A
*779 ANTENNA__0667__A
*780 ANTENNA__0668__A
*781 ANTENNA__0668__B
*782 ANTENNA__0670__A
*783 ANTENNA__0671__A
*784 ANTENNA__0671__B
*785 ANTENNA__0672__A1
*786 ANTENNA__0673__A
*787 ANTENNA__0673__B
*788 ANTENNA__0674__A1
*789 ANTENNA__0674__A2
*790 ANTENNA__0675__A
*791 ANTENNA__0675__B
*792 ANTENNA__0676__A2
*793 ANTENNA__0677__S
*794 ANTENNA__0679__A
*795 ANTENNA__0679__B
*796 ANTENNA__0680__A0
*797 ANTENNA__0680__A1
*798 ANTENNA__0680__A2
*799 ANTENNA__0680__A3
*800 ANTENNA__0680__S1
*801 ANTENNA__0682__A
*802 ANTENNA__0683__A0
*803 ANTENNA__0683__A1
*804 ANTENNA__0683__A2
*805 ANTENNA__0683__A3
*806 ANTENNA__0683__S1
*807 ANTENNA__0688__A
*808 ANTENNA__0688__B
*809 ANTENNA__0689__A
*810 ANTENNA__0690__A1
*811 ANTENNA__0690__A2
*812 ANTENNA__0693__B
*813 ANTENNA__0694__A
*814 ANTENNA__0695__A
*815 ANTENNA__0699__A
*816 ANTENNA__0700__A
*817 ANTENNA__0701__A1
*818 ANTENNA__0702__A
*819 ANTENNA__0703__A
*820 ANTENNA__0705__A1
*821 ANTENNA__0706__B
*822 ANTENNA__0707__B
*823 ANTENNA__0708__A1
*824 ANTENNA__0708__A2
*825 ANTENNA__0708__B1
*826 ANTENNA__0708__C1
*827 ANTENNA__0709__A
*828 ANTENNA__0709__B
*829 ANTENNA__0710__A2
*830 ANTENNA__0710__B1
*831 ANTENNA__0715__A1
*832 ANTENNA__0715__B1
*833 ANTENNA__0715__B2
*834 ANTENNA__0718__A2
*835 ANTENNA__0718__A3
*836 ANTENNA__0721__A
*837 ANTENNA__0721__B
*838 ANTENNA__0723__A
*839 ANTENNA__0723__B
*840 ANTENNA__0725__A
*841 ANTENNA__0726__A1
*842 ANTENNA__0728__A
*843 ANTENNA__0729__A
*844 ANTENNA__0730__A2
*845 ANTENNA__0730__B1
*846 ANTENNA__0730__C1
*847 ANTENNA__0731__A1
*848 ANTENNA__0731__A2
*849 ANTENNA__0731__B2
*850 ANTENNA__0733__A
*851 ANTENNA__0734__S
*852 ANTENNA__0736__A
*853 ANTENNA__0737__A1
*854 ANTENNA__0737__B1
*855 ANTENNA__0737__C1
*856 ANTENNA__0738__S
*857 ANTENNA__0741__A1
*858 ANTENNA__0742__A0
*859 ANTENNA__0742__A1
*860 ANTENNA__0749__A1
*861 ANTENNA__0749__A2
*862 ANTENNA__0749__A3
*863 ANTENNA__0749__B2
*864 ANTENNA__0752__A
*865 ANTENNA__0752__B
*866 ANTENNA__0753__A
*867 ANTENNA__0753__B
*868 ANTENNA__0759__A
*869 ANTENNA__0759__B
*870 ANTENNA__0760__A1
*871 ANTENNA__0760__A2
*872 ANTENNA__0760__B1
*873 ANTENNA__0761__A1
*874 ANTENNA__0761__C1
*875 ANTENNA__0762__A1
*876 ANTENNA__0762__A2
*877 ANTENNA__0763__B
*878 ANTENNA__0765__A1
*879 ANTENNA__0767__A
*880 ANTENNA__0768__A1
*881 ANTENNA__0769__S
*882 ANTENNA__0771__S
*883 ANTENNA__0773__A0
*884 ANTENNA__0773__A1
*885 ANTENNA__0773__A2
*886 ANTENNA__0773__A3
*887 ANTENNA__0773__S1
*888 ANTENNA__0774__A0
*889 ANTENNA__0774__A1
*890 ANTENNA__0774__S
*891 ANTENNA__0775__A1
*892 ANTENNA__0775__A2
*893 ANTENNA__0776__A1
*894 ANTENNA__0779__A0
*895 ANTENNA__0779__A1
*896 ANTENNA__0779__S
*897 ANTENNA__0781__A
*898 ANTENNA__0783__A
*899 ANTENNA__0783__B
*900 ANTENNA__0786__A0
*901 ANTENNA__0786__A1
*902 ANTENNA__0790__B1
*903 ANTENNA__0793__A
*904 ANTENNA__0793__B
*905 ANTENNA__0794__A
*906 ANTENNA__0794__B
*907 ANTENNA__0796__B
*908 ANTENNA__0802__A
*909 ANTENNA__0808__A
*910 ANTENNA__0809__A1
*911 ANTENNA__0809__A2
*912 ANTENNA__0809__B2
*913 ANTENNA__0810__A1
*914 ANTENNA__0810__A2
*915 ANTENNA__0810__B1
*916 ANTENNA__0810__C1
*917 ANTENNA__0813__A1
*918 ANTENNA__0814__A1
*919 ANTENNA__0814__A2
*920 ANTENNA__0815__A
*921 ANTENNA__0816__A
*922 ANTENNA__0816__B
*923 ANTENNA__0817__A
*924 ANTENNA__0817__B
*925 ANTENNA__0819__A2
*926 ANTENNA__0820__B
*927 ANTENNA__0824__A
*928 ANTENNA__0825__A0
*929 ANTENNA__0825__A1
*930 ANTENNA__0830__A
*931 ANTENNA__0830__B
*932 ANTENNA__0832__B1
*933 ANTENNA__0834__A
*934 ANTENNA__0835__A0
*935 ANTENNA__0835__A1
*936 ANTENNA__0836__A1
*937 ANTENNA__0836__A2
*938 ANTENNA__0836__B1
*939 ANTENNA__0840__A1
*940 ANTENNA__0840__A2
*941 ANTENNA__0843__A
*942 ANTENNA__0844__A
*943 ANTENNA__0844__B
*944 ANTENNA__0845__A
*945 ANTENNA__0845__B
*946 ANTENNA__0847__A1
*947 ANTENNA__0847__A2
*948 ANTENNA__0848__A
*949 ANTENNA__0848__B
*950 ANTENNA__0854__A1
*951 ANTENNA__0854__A2
*952 ANTENNA__0857__A
*953 ANTENNA__0858__A0
*954 ANTENNA__0858__A1
*955 ANTENNA__0861__A0
*956 ANTENNA__0864__A
*957 ANTENNA__0864__B
*958 ANTENNA__0865__A1
*959 ANTENNA__0865__A2
*960 ANTENNA__0865__B1
*961 ANTENNA__0866__A
*962 ANTENNA__0867__A1
*963 ANTENNA__0867__C1
*964 ANTENNA__0868__A1_N
*965 ANTENNA__0868__A2_N
*966 ANTENNA__0870__A1
*967 ANTENNA__0871__A1
*968 ANTENNA__0873__A
*969 ANTENNA__0873__B
*970 ANTENNA__0874__A
*971 ANTENNA__0874__B
*972 ANTENNA__0879__A0
*973 ANTENNA__0879__A1
*974 ANTENNA__0879__S
*975 ANTENNA__0887__A1
*976 ANTENNA__0887__A2
*977 ANTENNA__0887__B1
*978 ANTENNA__0887__C1
*979 ANTENNA__0888__A
*980 ANTENNA__0888__B
*981 ANTENNA__0888__C
*982 ANTENNA__0889__A1
*983 ANTENNA__0889__A2
*984 ANTENNA__0891__A1
*985 ANTENNA__0892__A
*986 ANTENNA__0893__A1
*987 ANTENNA__0894__A
*988 ANTENNA__0897__C1
*989 ANTENNA__0898__A1
*990 ANTENNA__0899__A
*991 ANTENNA__0899__B
*992 ANTENNA__0900__A
*993 ANTENNA__0900__B
*994 ANTENNA__0902__A
*995 ANTENNA__0902__B
*996 ANTENNA__0905__A
*997 ANTENNA__0906__A2
*998 ANTENNA__0907__B
*999 ANTENNA__0916__A
*1000 ANTENNA__0917__A0
*1001 ANTENNA__0917__A1
*1002 ANTENNA__0917__S
*1003 ANTENNA__0924__A1
*1004 ANTENNA__0924__A2
*1005 ANTENNA__0924__A3
*1006 ANTENNA__0924__B1
*1007 ANTENNA__0925__A
*1008 ANTENNA__0926__A1
*1009 ANTENNA__0926__A2
*1010 ANTENNA__0926__B1
*1011 ANTENNA__0927__A1
*1012 ANTENNA__0927__A2
*1013 ANTENNA__0927__B1
*1014 ANTENNA__0930__B1
*1015 ANTENNA__0931__A1
*1016 ANTENNA__0933__A
*1017 ANTENNA__0934__A
*1018 ANTENNA__0939__A
*1019 ANTENNA__0940__A0
*1020 ANTENNA__0940__A1
*1021 ANTENNA__0940__S
*1022 ANTENNA__0945__B
*1023 ANTENNA__0947__A1
*1024 ANTENNA__0947__A2
*1025 ANTENNA__0947__B1
*1026 ANTENNA__0947__C1
*1027 ANTENNA__0948__A
*1028 ANTENNA__0948__B
*1029 ANTENNA__0948__C
*1030 ANTENNA__0949__A1
*1031 ANTENNA__0949__A2
*1032 ANTENNA__0949__B1
*1033 ANTENNA__0952__A
*1034 ANTENNA__0953__A1
*1035 ANTENNA__0954__A
*1036 ANTENNA__0958__A
*1037 ANTENNA__0960__A1
*1038 ANTENNA__0962__A
*1039 ANTENNA__0962__B
*1040 ANTENNA__0963__A
*1041 ANTENNA__0963__B
*1042 ANTENNA__0965__A
*1043 ANTENNA__0966__A
*1044 ANTENNA__0967__A2
*1045 ANTENNA__0968__A1
*1046 ANTENNA__0969__A2
*1047 ANTENNA__0974__A
*1048 ANTENNA__0975__A
*1049 ANTENNA__0975__B
*1050 ANTENNA__0978__A0
*1051 ANTENNA__0978__A1
*1052 ANTENNA__0978__S
*1053 ANTENNA__0983__A1
*1054 ANTENNA__0983__A2
*1055 ANTENNA__0985__A0
*1056 ANTENNA__0985__A1
*1057 ANTENNA__0986__A1
*1058 ANTENNA__0987__A1
*1059 ANTENNA__0987__A2
*1060 ANTENNA__0987__B1
*1061 ANTENNA__0989__A1
*1062 ANTENNA__0990__A1
*1063 ANTENNA__0990__A2
*1064 ANTENNA__0994__A
*1065 ANTENNA__0994__B
*1066 ANTENNA__0995__A
*1067 ANTENNA__0995__B
*1068 ANTENNA__0998__B1
*1069 ANTENNA__0999__A1
*1070 ANTENNA__0999__A2
*1071 ANTENNA__1003__A
*1072 ANTENNA__1009__A1
*1073 ANTENNA__1009__A2
*1074 ANTENNA__1009__B1
*1075 ANTENNA__1010__A1
*1076 ANTENNA__1010__A2
*1077 ANTENNA__1010__B2
*1078 ANTENNA__1010__C1
*1079 ANTENNA__1011__A1
*1080 ANTENNA__1015__A
*1081 ANTENNA__1016__A2
*1082 ANTENNA__1017__B
*1083 ANTENNA__1019__B1
*1084 ANTENNA__1024__B
*1085 ANTENNA__1025__A0
*1086 ANTENNA__1025__A1
*1087 ANTENNA__1025__S
*1088 ANTENNA__1030__A
*1089 ANTENNA__1030__B
*1090 ANTENNA__1031__A
*1091 ANTENNA__1031__B
*1092 ANTENNA__1035__A1
*1093 ANTENNA__1035__B1
*1094 ANTENNA__1037__A1
*1095 ANTENNA__1037__A2
*1096 ANTENNA__1037__B1
*1097 ANTENNA__1038__A
*1098 ANTENNA__1039__A
*1099 ANTENNA__1040__A2
*1100 ANTENNA__1041__A1
*1101 ANTENNA__1047__B1
*1102 ANTENNA__1048__A
*1103 ANTENNA__1049__A1
*1104 ANTENNA__1049__A2
*1105 ANTENNA__1049__B1
*1106 ANTENNA__1053__A
*1107 ANTENNA__1053__B
*1108 ANTENNA__1054__A
*1109 ANTENNA__1054__B
*1110 ANTENNA__1058__A
*1111 ANTENNA__1059__A
*1112 ANTENNA__1060__A2
*1113 ANTENNA__1061__B
*1114 ANTENNA__1065__A
*1115 ANTENNA__1066__A1
*1116 ANTENNA__1066__A2
*1117 ANTENNA__1066__B1
*1118 ANTENNA__1066__C1
*1119 ANTENNA__1067__A
*1120 ANTENNA__1067__B
*1121 ANTENNA__1068__A1
*1122 ANTENNA__1068__A2
*1123 ANTENNA__1068__B2
*1124 ANTENNA__1068__C1
*1125 ANTENNA__1071__A1
*1126 ANTENNA__1076__A
*1127 ANTENNA__1079__A
*1128 ANTENNA__1080__A
*1129 ANTENNA__1084__B1
*1130 ANTENNA__1085__A
*1131 ANTENNA__1086__A
*1132 ANTENNA__1087__A2
*1133 ANTENNA__1088__A1
*1134 ANTENNA__1094__A1
*1135 ANTENNA__1094__A2
*1136 ANTENNA__1094__B1
*1137 ANTENNA__1094__C1
*1138 ANTENNA__1095__A2
*1139 ANTENNA__1095__B2
*1140 ANTENNA__1095__C1
*1141 ANTENNA__1099__A1
*1142 ANTENNA__1099__S
*1143 ANTENNA__1103__A
*1144 ANTENNA__1104__A1
*1145 ANTENNA__1108__A
*1146 ANTENNA__1109__A
*1147 ANTENNA__1109__B
*1148 ANTENNA__1110__A
*1149 ANTENNA__1110__B
*1150 ANTENNA__1119__A
*1151 ANTENNA__1120__A1
*1152 ANTENNA__1123__A1
*1153 ANTENNA__1127__A1
*1154 ANTENNA__1127__A2
*1155 ANTENNA__1127__B1
*1156 ANTENNA__1127__C1
*1157 ANTENNA__1129__A1
*1158 ANTENNA__1129__A2
*1159 ANTENNA__1129__A3
*1160 ANTENNA__1129__B1
*1161 ANTENNA__1131__A
*1162 ANTENNA__1132__A
*1163 ANTENNA__1134__A1
*1164 ANTENNA__1135__A2
*1165 ANTENNA__1136__A
*1166 ANTENNA__1136__B
*1167 ANTENNA__1138__A
*1168 ANTENNA__1140__A
*1169 ANTENNA__1140__B
*1170 ANTENNA__1141__A
*1171 ANTENNA__1141__B
*1172 ANTENNA__1145__A
*1173 ANTENNA__1147__A
*1174 ANTENNA__1147__B
*1175 ANTENNA__1154__B2
*1176 ANTENNA__1155__A
*1177 ANTENNA__1157__A1
*1178 ANTENNA__1160__A1
*1179 ANTENNA__1160__B1
*1180 ANTENNA__1163__B1
*1181 ANTENNA__1164__A1
*1182 ANTENNA__1165__A
*1183 ANTENNA__1166__A
*1184 ANTENNA__1166__B
*1185 ANTENNA__1167__A
*1186 ANTENNA__1167__B
*1187 ANTENNA__1167__C
*1188 ANTENNA__1167__D
*1189 ANTENNA__1169__A
*1190 ANTENNA__1169__B
*1191 ANTENNA__1170__C
*1192 ANTENNA__1170__D
*1193 ANTENNA__1172__A
*1194 ANTENNA__1173__A
*1195 ANTENNA__1174__A
*1196 ANTENNA__1175__A1
*1197 ANTENNA__1175__A2
*1198 ANTENNA__1176__A
*1199 ANTENNA_input10_A
*1200 ANTENNA_input11_A
*1201 ANTENNA_input12_A
*1202 ANTENNA_input13_A
*1203 ANTENNA_input14_A
*1204 ANTENNA_input15_A
*1205 ANTENNA_input16_A
*1206 ANTENNA_input17_A
*1207 ANTENNA_input18_A
*1208 ANTENNA_input19_A
*1209 ANTENNA_input1_A
*1210 ANTENNA_input20_A
*1211 ANTENNA_input21_A
*1212 ANTENNA_input22_A
*1213 ANTENNA_input23_A
*1214 ANTENNA_input24_A
*1215 ANTENNA_input25_A
*1216 ANTENNA_input26_A
*1217 ANTENNA_input27_A
*1218 ANTENNA_input28_A
*1219 ANTENNA_input29_A
*1220 ANTENNA_input2_A
*1221 ANTENNA_input30_A
*1222 ANTENNA_input31_A
*1223 ANTENNA_input32_A
*1224 ANTENNA_input33_A
*1225 ANTENNA_input34_A
*1226 ANTENNA_input35_A
*1227 ANTENNA_input36_A
*1228 ANTENNA_input37_A
*1229 ANTENNA_input3_A
*1230 ANTENNA_input4_A
*1231 ANTENNA_input5_A
*1232 ANTENNA_input6_A
*1233 ANTENNA_input7_A
*1234 ANTENNA_input8_A
*1235 ANTENNA_input9_A
*1236 ANTENNA_output39_A
*1237 ANTENNA_output40_A
*1238 ANTENNA_output42_A
*1239 ANTENNA_output43_A
*1240 ANTENNA_output44_A
*1241 ANTENNA_output45_A
*1242 ANTENNA_output48_A
*1243 ANTENNA_output50_A
*1244 ANTENNA_output51_A
*1245 ANTENNA_output52_A
*1246 ANTENNA_output55_A
*1247 ANTENNA_output57_A
*1248 ANTENNA_output58_A
*1249 FILLER_0_105
*1250 FILLER_0_111
*1251 FILLER_0_113
*1252 FILLER_0_118
*1253 FILLER_0_128
*1254 FILLER_0_141
*1255 FILLER_0_146
*1256 FILLER_0_154
*1257 FILLER_0_16
*1258 FILLER_0_166
*1259 FILLER_0_169
*1260 FILLER_0_177
*1261 FILLER_0_187
*1262 FILLER_0_195
*1263 FILLER_0_207
*1264 FILLER_0_213
*1265 FILLER_0_217
*1266 FILLER_0_223
*1267 FILLER_0_229
*1268 FILLER_0_237
*1269 FILLER_0_245
*1270 FILLER_0_251
*1271 FILLER_0_253
*1272 FILLER_0_258
*1273 FILLER_0_266
*1274 FILLER_0_278
*1275 FILLER_0_281
*1276 FILLER_0_286
*1277 FILLER_0_29
*1278 FILLER_0_296
*1279 FILLER_0_3
*1280 FILLER_0_304
*1281 FILLER_0_35
*1282 FILLER_0_47
*1283 FILLER_0_52
*1284 FILLER_0_6
*1285 FILLER_0_61
*1286 FILLER_0_73
*1287 FILLER_0_81
*1288 FILLER_0_89
*1289 FILLER_10_100
*1290 FILLER_10_111
*1291 FILLER_10_117
*1292 FILLER_10_125
*1293 FILLER_10_130
*1294 FILLER_10_136
*1295 FILLER_10_14
*1296 FILLER_10_143
*1297 FILLER_10_152
*1298 FILLER_10_164
*1299 FILLER_10_170
*1300 FILLER_10_176
*1301 FILLER_10_180
*1302 FILLER_10_183
*1303 FILLER_10_189
*1304 FILLER_10_192
*1305 FILLER_10_200
*1306 FILLER_10_206
*1307 FILLER_10_212
*1308 FILLER_10_22
*1309 FILLER_10_220
*1310 FILLER_10_233
*1311 FILLER_10_239
*1312 FILLER_10_245
*1313 FILLER_10_251
*1314 FILLER_10_255
*1315 FILLER_10_267
*1316 FILLER_10_279
*1317 FILLER_10_29
*1318 FILLER_10_292
*1319 FILLER_10_296
*1320 FILLER_10_301
*1321 FILLER_10_37
*1322 FILLER_10_46
*1323 FILLER_10_5
*1324 FILLER_10_56
*1325 FILLER_10_68
*1326 FILLER_10_80
*1327 FILLER_10_92
*1328 FILLER_11_10
*1329 FILLER_11_111
*1330 FILLER_11_115
*1331 FILLER_11_127
*1332 FILLER_11_131
*1333 FILLER_11_137
*1334 FILLER_11_141
*1335 FILLER_11_151
*1336 FILLER_11_159
*1337 FILLER_11_167
*1338 FILLER_11_169
*1339 FILLER_11_180
*1340 FILLER_11_186
*1341 FILLER_11_198
*1342 FILLER_11_20
*1343 FILLER_11_213
*1344 FILLER_11_219
*1345 FILLER_11_223
*1346 FILLER_11_225
*1347 FILLER_11_234
*1348 FILLER_11_240
*1349 FILLER_11_246
*1350 FILLER_11_258
*1351 FILLER_11_26
*1352 FILLER_11_271
*1353 FILLER_11_279
*1354 FILLER_11_290
*1355 FILLER_11_3
*1356 FILLER_11_302
*1357 FILLER_11_45
*1358 FILLER_11_51
*1359 FILLER_11_55
*1360 FILLER_11_59
*1361 FILLER_11_67
*1362 FILLER_11_71
*1363 FILLER_11_79
*1364 FILLER_11_93
*1365 FILLER_11_99
*1366 FILLER_12_100
*1367 FILLER_12_110
*1368 FILLER_12_122
*1369 FILLER_12_130
*1370 FILLER_12_136
*1371 FILLER_12_141
*1372 FILLER_12_145
*1373 FILLER_12_154
*1374 FILLER_12_16
*1375 FILLER_12_160
*1376 FILLER_12_174
*1377 FILLER_12_183
*1378 FILLER_12_195
*1379 FILLER_12_197
*1380 FILLER_12_209
*1381 FILLER_12_217
*1382 FILLER_12_220
*1383 FILLER_12_232
*1384 FILLER_12_240
*1385 FILLER_12_246
*1386 FILLER_12_253
*1387 FILLER_12_268
*1388 FILLER_12_280
*1389 FILLER_12_285
*1390 FILLER_12_293
*1391 FILLER_12_3
*1392 FILLER_12_301
*1393 FILLER_12_31
*1394 FILLER_12_42
*1395 FILLER_12_51
*1396 FILLER_12_57
*1397 FILLER_12_60
*1398 FILLER_12_71
*1399 FILLER_12_77
*1400 FILLER_12_80
*1401 FILLER_12_87
*1402 FILLER_12_94
*1403 FILLER_13_108
*1404 FILLER_13_115
*1405 FILLER_13_121
*1406 FILLER_13_129
*1407 FILLER_13_135
*1408 FILLER_13_143
*1409 FILLER_13_146
*1410 FILLER_13_155
*1411 FILLER_13_16
*1412 FILLER_13_161
*1413 FILLER_13_167
*1414 FILLER_13_169
*1415 FILLER_13_173
*1416 FILLER_13_186
*1417 FILLER_13_192
*1418 FILLER_13_198
*1419 FILLER_13_206
*1420 FILLER_13_211
*1421 FILLER_13_217
*1422 FILLER_13_223
*1423 FILLER_13_227
*1424 FILLER_13_233
*1425 FILLER_13_239
*1426 FILLER_13_248
*1427 FILLER_13_25
*1428 FILLER_13_254
*1429 FILLER_13_258
*1430 FILLER_13_267
*1431 FILLER_13_279
*1432 FILLER_13_281
*1433 FILLER_13_291
*1434 FILLER_13_3
*1435 FILLER_13_301
*1436 FILLER_13_31
*1437 FILLER_13_38
*1438 FILLER_13_50
*1439 FILLER_13_57
*1440 FILLER_13_63
*1441 FILLER_13_68
*1442 FILLER_13_80
*1443 FILLER_13_91
*1444 FILLER_14_108
*1445 FILLER_14_114
*1446 FILLER_14_130
*1447 FILLER_14_136
*1448 FILLER_14_143
*1449 FILLER_14_149
*1450 FILLER_14_15
*1451 FILLER_14_161
*1452 FILLER_14_167
*1453 FILLER_14_173
*1454 FILLER_14_18
*1455 FILLER_14_186
*1456 FILLER_14_192
*1457 FILLER_14_199
*1458 FILLER_14_207
*1459 FILLER_14_216
*1460 FILLER_14_226
*1461 FILLER_14_235
*1462 FILLER_14_239
*1463 FILLER_14_245
*1464 FILLER_14_251
*1465 FILLER_14_258
*1466 FILLER_14_26
*1467 FILLER_14_266
*1468 FILLER_14_272
*1469 FILLER_14_285
*1470 FILLER_14_29
*1471 FILLER_14_298
*1472 FILLER_14_3
*1473 FILLER_14_304
*1474 FILLER_14_41
*1475 FILLER_14_53
*1476 FILLER_14_65
*1477 FILLER_14_75
*1478 FILLER_14_83
*1479 FILLER_14_88
*1480 FILLER_15_107
*1481 FILLER_15_111
*1482 FILLER_15_115
*1483 FILLER_15_123
*1484 FILLER_15_128
*1485 FILLER_15_13
*1486 FILLER_15_141
*1487 FILLER_15_147
*1488 FILLER_15_159
*1489 FILLER_15_16
*1490 FILLER_15_167
*1491 FILLER_15_169
*1492 FILLER_15_178
*1493 FILLER_15_189
*1494 FILLER_15_197
*1495 FILLER_15_207
*1496 FILLER_15_211
*1497 FILLER_15_218
*1498 FILLER_15_229
*1499 FILLER_15_236
*1500 FILLER_15_246
*1501 FILLER_15_253
*1502 FILLER_15_257
*1503 FILLER_15_267
*1504 FILLER_15_279
*1505 FILLER_15_28
*1506 FILLER_15_284
*1507 FILLER_15_292
*1508 FILLER_15_304
*1509 FILLER_15_43
*1510 FILLER_15_52
*1511 FILLER_15_59
*1512 FILLER_15_7
*1513 FILLER_15_71
*1514 FILLER_15_95
*1515 FILLER_16_102
*1516 FILLER_16_108
*1517 FILLER_16_114
*1518 FILLER_16_117
*1519 FILLER_16_125
*1520 FILLER_16_133
*1521 FILLER_16_139
*1522 FILLER_16_14
*1523 FILLER_16_148
*1524 FILLER_16_160
*1525 FILLER_16_170
*1526 FILLER_16_177
*1527 FILLER_16_191
*1528 FILLER_16_195
*1529 FILLER_16_20
*1530 FILLER_16_203
*1531 FILLER_16_209
*1532 FILLER_16_215
*1533 FILLER_16_221
*1534 FILLER_16_227
*1535 FILLER_16_235
*1536 FILLER_16_241
*1537 FILLER_16_249
*1538 FILLER_16_255
*1539 FILLER_16_267
*1540 FILLER_16_279
*1541 FILLER_16_29
*1542 FILLER_16_291
*1543 FILLER_16_3
*1544 FILLER_16_303
*1545 FILLER_16_33
*1546 FILLER_16_39
*1547 FILLER_16_51
*1548 FILLER_16_63
*1549 FILLER_16_68
*1550 FILLER_16_79
*1551 FILLER_16_83
*1552 FILLER_16_88
*1553 FILLER_16_94
*1554 FILLER_17_102
*1555 FILLER_17_108
*1556 FILLER_17_118
*1557 FILLER_17_124
*1558 FILLER_17_133
*1559 FILLER_17_139
*1560 FILLER_17_147
*1561 FILLER_17_159
*1562 FILLER_17_167
*1563 FILLER_17_169
*1564 FILLER_17_180
*1565 FILLER_17_201
*1566 FILLER_17_207
*1567 FILLER_17_218
*1568 FILLER_17_225
*1569 FILLER_17_23
*1570 FILLER_17_233
*1571 FILLER_17_237
*1572 FILLER_17_243
*1573 FILLER_17_250
*1574 FILLER_17_261
*1575 FILLER_17_273
*1576 FILLER_17_279
*1577 FILLER_17_281
*1578 FILLER_17_293
*1579 FILLER_17_299
*1580 FILLER_17_3
*1581 FILLER_17_35
*1582 FILLER_17_43
*1583 FILLER_17_49
*1584 FILLER_17_55
*1585 FILLER_17_59
*1586 FILLER_17_70
*1587 FILLER_17_76
*1588 FILLER_17_84
*1589 FILLER_17_9
*1590 FILLER_17_90
*1591 FILLER_17_96
*1592 FILLER_18_103
*1593 FILLER_18_107
*1594 FILLER_18_115
*1595 FILLER_18_126
*1596 FILLER_18_132
*1597 FILLER_18_136
*1598 FILLER_18_145
*1599 FILLER_18_156
*1600 FILLER_18_16
*1601 FILLER_18_170
*1602 FILLER_18_178
*1603 FILLER_18_183
*1604 FILLER_18_189
*1605 FILLER_18_192
*1606 FILLER_18_202
*1607 FILLER_18_208
*1608 FILLER_18_216
*1609 FILLER_18_220
*1610 FILLER_18_232
*1611 FILLER_18_244
*1612 FILLER_18_253
*1613 FILLER_18_257
*1614 FILLER_18_267
*1615 FILLER_18_273
*1616 FILLER_18_281
*1617 FILLER_18_29
*1618 FILLER_18_294
*1619 FILLER_18_3
*1620 FILLER_18_300
*1621 FILLER_18_304
*1622 FILLER_18_39
*1623 FILLER_18_47
*1624 FILLER_18_55
*1625 FILLER_18_61
*1626 FILLER_18_70
*1627 FILLER_18_79
*1628 FILLER_18_83
*1629 FILLER_18_85
*1630 FILLER_18_91
*1631 FILLER_19_107
*1632 FILLER_19_111
*1633 FILLER_19_113
*1634 FILLER_19_119
*1635 FILLER_19_127
*1636 FILLER_19_130
*1637 FILLER_19_137
*1638 FILLER_19_145
*1639 FILLER_19_149
*1640 FILLER_19_15
*1641 FILLER_19_153
*1642 FILLER_19_159
*1643 FILLER_19_167
*1644 FILLER_19_173
*1645 FILLER_19_179
*1646 FILLER_19_185
*1647 FILLER_19_191
*1648 FILLER_19_202
*1649 FILLER_19_208
*1650 FILLER_19_212
*1651 FILLER_19_218
*1652 FILLER_19_225
*1653 FILLER_19_237
*1654 FILLER_19_244
*1655 FILLER_19_251
*1656 FILLER_19_265
*1657 FILLER_19_27
*1658 FILLER_19_277
*1659 FILLER_19_281
*1660 FILLER_19_293
*1661 FILLER_19_3
*1662 FILLER_19_301
*1663 FILLER_19_39
*1664 FILLER_19_47
*1665 FILLER_19_52
*1666 FILLER_19_59
*1667 FILLER_19_70
*1668 FILLER_19_74
*1669 FILLER_19_80
*1670 FILLER_19_87
*1671 FILLER_19_95
*1672 FILLER_19_99
*1673 FILLER_1_102
*1674 FILLER_1_108
*1675 FILLER_1_119
*1676 FILLER_1_125
*1677 FILLER_1_128
*1678 FILLER_1_136
*1679 FILLER_1_145
*1680 FILLER_1_153
*1681 FILLER_1_165
*1682 FILLER_1_169
*1683 FILLER_1_173
*1684 FILLER_1_181
*1685 FILLER_1_186
*1686 FILLER_1_19
*1687 FILLER_1_199
*1688 FILLER_1_205
*1689 FILLER_1_214
*1690 FILLER_1_220
*1691 FILLER_1_227
*1692 FILLER_1_239
*1693 FILLER_1_244
*1694 FILLER_1_256
*1695 FILLER_1_268
*1696 FILLER_1_281