*SPEF "ieee 1481-1999"
*DESIGN "clk_div"
*DATE "11:11:11 Fri 11 11, 1111"
*VENDOR "OpenRCX"
*PROGRAM "Parallel Extraction"
*VERSION "1.0"
*DESIGN_FLOW "NAME_SCOPE LOCAL" "PIN_CAP NONE"
*DIVIDER /
*DELIMITER :
*BUS_DELIMITER []
*T_UNIT 1 NS
*C_UNIT 1 PF
*R_UNIT 1 OHM
*L_UNIT 1 HENRY

*NAME_MAP
*1 clock_sel
*2 div[0]
*3 div[1]
*4 div[2]
*5 div[3]
*6 div_we
*7 i_clk
*8 i_rst
*9 o_clk
*12 _000_
*13 _001_
*14 _002_
*15 _003_
*16 _004_
*17 _005_
*18 _006_
*19 _007_
*20 _008_
*21 _009_
*22 _010_
*23 _011_
*24 _012_
*25 _013_
*26 _014_
*27 _015_
*28 _016_
*29 _017_
*30 _018_
*31 _019_
*32 _020_
*33 _021_
*34 _022_
*35 _023_
*36 _024_
*37 _025_
*38 _026_
*39 _027_
*40 _028_
*41 _029_
*42 _030_
*43 _031_
*44 _032_
*45 _033_
*46 _034_
*47 _035_
*48 _036_
*49 _037_
*50 _038_
*51 _039_
*52 _040_
*53 _041_
*54 _042_
*55 _043_
*56 _044_
*57 _045_
*58 _046_
*59 _047_
*60 _048_
*61 _049_
*62 _050_
*63 _051_
*64 _052_
*65 _053_
*66 _054_
*67 _055_
*68 _056_
*69 _057_
*70 _058_
*71 _059_
*72 _060_
*73 _061_
*74 _062_
*75 _063_
*76 _064_
*77 _065_
*78 _066_
*79 _067_
*80 _068_
*81 _069_
*82 _070_
*83 _071_
*84 _072_
*85 _073_
*86 _074_
*87 _075_
*88 _076_
*89 _077_
*90 _078_
*91 _079_
*92 _080_
*93 _081_
*94 _082_
*95 _083_
*96 _084_
*97 _085_
*98 _086_
*99 _087_
*100 _088_
*101 _089_
*102 _090_
*103 _091_
*104 _092_
*105 _093_
*106 _094_
*107 _095_
*108 _096_
*109 _097_
*110 _098_
*111 _099_
*112 _100_
*113 _101_
*114 _102_
*115 _103_
*116 _104_
*117 _105_
*118 _106_
*119 _107_
*120 _108_
*121 _109_
*122 _110_
*123 _111_
*124 _112_
*125 _113_
*126 clknet_0_i_clk
*127 clknet_0_res_clk
*128 clknet_1_0__leaf_i_clk
*129 clknet_1_0__leaf_res_clk
*130 clknet_1_1__leaf_i_clk
*131 clknet_1_1__leaf_res_clk
*132 clock_sel_r
*133 cnt\[0\]
*134 cnt\[10\]
*135 cnt\[11\]
*136 cnt\[12\]
*137 cnt\[13\]
*138 cnt\[14\]
*139 cnt\[15\]
*140 cnt\[1\]
*141 cnt\[2\]
*142 cnt\[3\]
*143 cnt\[4\]
*144 cnt\[5\]
*145 cnt\[6\]
*146 cnt\[7\]
*147 cnt\[8\]
*148 cnt\[9\]
*149 curr_div\[0\]
*150 curr_div\[1\]
*151 curr_div\[2\]
*152 curr_div\[3\]
*153 net1
*154 net2
*155 net3
*156 net4
*157 net5
*158 net6
*159 net7
*160 net8
*161 next_div_buff\[0\]
*162 next_div_buff\[1\]
*163 next_div_buff\[2\]
*164 next_div_buff\[3\]
*165 next_div_val
*166 res_clk
*167 ANTENNA__114__S
*168 ANTENNA__115__A
*169 ANTENNA__117__A
*170 ANTENNA__118__B1
*171 ANTENNA__122__B1
*172 ANTENNA__123__B1
*173 ANTENNA__124__A
*174 ANTENNA__125__B1_N
*175 ANTENNA__126__B
*176 ANTENNA__127__B
*177 ANTENNA__128__B1
*178 ANTENNA__131__B
*179 ANTENNA__132__A2
*180 ANTENNA__132__B1_N
*181 ANTENNA__133__A_N
*182 ANTENNA__133__B
*183 ANTENNA__134__A_N
*184 ANTENNA__134__B
*185 ANTENNA__135__B1
*186 ANTENNA__137__A
*187 ANTENNA__137__B_N
*188 ANTENNA__138__A1
*189 ANTENNA__138__B1
*190 ANTENNA__139__A2
*191 ANTENNA__139__B1_N
*192 ANTENNA__140__A_N
*193 ANTENNA__140__B
*194 ANTENNA__142__B
*195 ANTENNA__143__A
*196 ANTENNA__144__A1
*197 ANTENNA__145__A2
*198 ANTENNA__145__B1
*199 ANTENNA__146__A1
*200 ANTENNA__146__A2
*201 ANTENNA__146__B2
*202 ANTENNA__147__A1
*203 ANTENNA__147__A2
*204 ANTENNA__149__A
*205 ANTENNA__150__A2
*206 ANTENNA__150__B1
*207 ANTENNA__153__A1
*208 ANTENNA__153__A2
*209 ANTENNA__154__A
*210 ANTENNA__154__B
*211 ANTENNA__157__A1
*212 ANTENNA__157__A2
*213 ANTENNA__157__B1
*214 ANTENNA__158__A
*215 ANTENNA__158__B
*216 ANTENNA__158__D
*217 ANTENNA__159__A2
*218 ANTENNA__160__A1
*219 ANTENNA__161__A1
*220 ANTENNA__162__A
*221 ANTENNA__162__B
*222 ANTENNA__162__C
*223 ANTENNA__163__A1
*224 ANTENNA__163__B1
*225 ANTENNA__165__A1
*226 ANTENNA__165__A2
*227 ANTENNA__170__B1
*228 ANTENNA__171__B
*229 ANTENNA__173__A2
*230 ANTENNA__174__B1
*231 ANTENNA__176__A2
*232 ANTENNA__188__B
*233 ANTENNA__199__A2
*234 ANTENNA__200__A2
*235 ANTENNA__200__B1
*236 ANTENNA__203__A
*237 ANTENNA__206__A3
*238 ANTENNA__206__A4
*239 ANTENNA__206__B1
*240 ANTENNA__208__A
*241 ANTENNA__209__A2
*242 ANTENNA__209__A3
*243 ANTENNA__209__B1
*244 ANTENNA__211__A2
*245 ANTENNA__211__A3
*246 ANTENNA__211__B1
*247 ANTENNA__213__A1
*248 ANTENNA__213__A2
*249 ANTENNA__213__B1
*250 ANTENNA__214__A
*251 ANTENNA__216__B
*252 ANTENNA__217__A2
*253 ANTENNA__218__A1
*254 ANTENNA__220__A1
*255 ANTENNA__222__A1
*256 ANTENNA__245__D
*257 ANTENNA_clkbuf_0_i_clk_A
*258 ANTENNA_input1_A
*259 ANTENNA_input2_A
*260 ANTENNA_input3_A
*261 ANTENNA_input4_A
*262 ANTENNA_input5_A
*263 ANTENNA_input6_A
*264 ANTENNA_input7_A
*265 FILLER_0_109
*266 FILLER_0_113
*267 FILLER_0_125
*268 FILLER_0_13
*269 FILLER_0_137
*270 FILLER_0_141
*271 FILLER_0_153
*272 FILLER_0_165
*273 FILLER_0_169
*274 FILLER_0_174
*275 FILLER_0_180
*276 FILLER_0_192
*277 FILLER_0_197
*278 FILLER_0_209
*279 FILLER_0_221
*280 FILLER_0_225
*281 FILLER_0_237
*282 FILLER_0_249
*283 FILLER_0_25
*284 FILLER_0_253
*285 FILLER_0_265
*286 FILLER_0_277
*287 FILLER_0_281
*288 FILLER_0_29
*289 FILLER_0_293
*290 FILLER_0_305
*291 FILLER_0_309
*292 FILLER_0_321
*293 FILLER_0_333
*294 FILLER_0_337
*295 FILLER_0_349
*296 FILLER_0_361
*297 FILLER_0_365
*298 FILLER_0_373
*299 FILLER_0_385
*300 FILLER_0_391
*301 FILLER_0_393
*302 FILLER_0_405
*303 FILLER_0_41
*304 FILLER_0_53
*305 FILLER_0_57
*306 FILLER_0_69
*307 FILLER_0_81
*308 FILLER_0_85
*309 FILLER_0_97
*310 FILLER_10_109
*311 FILLER_10_121
*312 FILLER_10_133
*313 FILLER_10_139
*314 FILLER_10_141
*315 FILLER_10_15
*316 FILLER_10_153
*317 FILLER_10_165
*318 FILLER_10_177
*319 FILLER_10_189
*320 FILLER_10_195
*321 FILLER_10_197
*322 FILLER_10_209
*323 FILLER_10_221
*324 FILLER_10_233
*325 FILLER_10_245
*326 FILLER_10_251
*327 FILLER_10_253
*328 FILLER_10_265
*329 FILLER_10_27
*330 FILLER_10_277
*331 FILLER_10_289
*332 FILLER_10_29
*333 FILLER_10_3
*334 FILLER_10_301
*335 FILLER_10_307
*336 FILLER_10_309
*337 FILLER_10_321
*338 FILLER_10_333
*339 FILLER_10_345
*340 FILLER_10_357
*341 FILLER_10_363
*342 FILLER_10_365
*343 FILLER_10_377
*344 FILLER_10_389
*345 FILLER_10_401
*346 FILLER_10_41
*347 FILLER_10_53
*348 FILLER_10_65
*349 FILLER_10_77
*350 FILLER_10_83
*351 FILLER_10_85
*352 FILLER_10_97
*353 FILLER_11_105
*354 FILLER_11_111
*355 FILLER_11_113
*356 FILLER_11_125
*357 FILLER_11_137
*358 FILLER_11_149
*359 FILLER_11_15
*360 FILLER_11_161
*361 FILLER_11_167
*362 FILLER_11_169
*363 FILLER_11_181
*364 FILLER_11_193
*365 FILLER_11_205
*366 FILLER_11_217
*367 FILLER_11_223
*368 FILLER_11_225
*369 FILLER_11_237
*370 FILLER_11_249
*371 FILLER_11_261
*372 FILLER_11_27
*373 FILLER_11_273
*374 FILLER_11_279
*375 FILLER_11_281
*376 FILLER_11_293
*377 FILLER_11_3
*378 FILLER_11_305
*379 FILLER_11_317
*380 FILLER_11_329
*381 FILLER_11_335
*382 FILLER_11_337
*383 FILLER_11_349
*384 FILLER_11_361
*385 FILLER_11_373
*386 FILLER_11_385
*387 FILLER_11_39
*388 FILLER_11_391
*389 FILLER_11_393
*390 FILLER_11_405
*391 FILLER_11_51
*392 FILLER_11_55
*393 FILLER_11_57
*394 FILLER_11_69
*395 FILLER_11_81
*396 FILLER_11_93
*397 FILLER_12_109
*398 FILLER_12_121
*399 FILLER_12_133
*400 FILLER_12_139
*401 FILLER_12_141
*402 FILLER_12_15
*403 FILLER_12_153
*404 FILLER_12_165
*405 FILLER_12_177
*406 FILLER_12_189
*407 FILLER_12_195
*408 FILLER_12_197
*409 FILLER_12_209
*410 FILLER_12_221
*411 FILLER_12_233
*412 FILLER_12_245
*413 FILLER_12_251
*414 FILLER_12_253
*415 FILLER_12_265
*416 FILLER_12_27
*417 FILLER_12_277
*418 FILLER_12_289
*419 FILLER_12_29
*420 FILLER_12_3
*421 FILLER_12_301
*422 FILLER_12_307
*423 FILLER_12_309
*424 FILLER_12_321
*425 FILLER_12_333
*426 FILLER_12_345
*427 FILLER_12_357
*428 FILLER_12_363
*429 FILLER_12_365
*430 FILLER_12_377
*431 FILLER_12_389
*432 FILLER_12_401
*433 FILLER_12_41
*434 FILLER_12_53
*435 FILLER_12_65
*436 FILLER_12_77
*437 FILLER_12_83
*438 FILLER_12_85
*439 FILLER_12_97
*440 FILLER_13_105
*441 FILLER_13_111
*442 FILLER_13_113
*443 FILLER_13_125
*444 FILLER_13_137
*445 FILLER_13_149
*446 FILLER_13_15
*447 FILLER_13_161
*448 FILLER_13_167
*449 FILLER_13_169
*450 FILLER_13_181
*451 FILLER_13_193
*452 FILLER_13_205
*453 FILLER_13_217
*454 FILLER_13_223
*455 FILLER_13_225
*456 FILLER_13_237
*457 FILLER_13_249
*458 FILLER_13_261
*459 FILLER_13_27
*460 FILLER_13_273
*461 FILLER_13_279
*462 FILLER_13_281
*463 FILLER_13_293
*464 FILLER_13_3
*465 FILLER_13_305
*466 FILLER_13_317
*467 FILLER_13_329
*468 FILLER_13_335
*469 FILLER_13_337
*470 FILLER_13_349
*471 FILLER_13_361
*472 FILLER_13_373
*473 FILLER_13_385
*474 FILLER_13_39
*475 FILLER_13_391
*476 FILLER_13_393
*477 FILLER_13_405
*478 FILLER_13_51
*479 FILLER_13_55
*480 FILLER_13_57
*481 FILLER_13_69
*482 FILLER_13_81
*483 FILLER_13_93
*484 FILLER_14_109
*485 FILLER_14_121
*486 FILLER_14_133
*487 FILLER_14_139
*488 FILLER_14_141
*489 FILLER_14_15
*490 FILLER_14_153
*491 FILLER_14_165
*492 FILLER_14_177
*493 FILLER_14_189
*494 FILLER_14_195
*495 FILLER_14_197
*496 FILLER_14_209
*497 FILLER_14_221
*498 FILLER_14_233
*499 FILLER_14_245
*500 FILLER_14_251
*501 FILLER_14_253
*502 FILLER_14_265
*503 FILLER_14_27
*504 FILLER_14_277
*505 FILLER_14_289
*506 FILLER_14_29
*507 FILLER_14_3
*508 FILLER_14_301
*509 FILLER_14_307
*510 FILLER_14_309
*511 FILLER_14_321
*512 FILLER_14_333
*513 FILLER_14_345
*514 FILLER_14_357
*515 FILLER_14_363
*516 FILLER_14_365
*517 FILLER_14_377
*518 FILLER_14_389
*519 FILLER_14_401
*520 FILLER_14_41
*521 FILLER_14_53
*522 FILLER_14_65
*523 FILLER_14_77
*524 FILLER_14_83
*525 FILLER_14_85
*526 FILLER_14_97
*527 FILLER_15_105
*528 FILLER_15_111
*529 FILLER_15_113
*530 FILLER_15_125
*531 FILLER_15_137
*532 FILLER_15_149
*533 FILLER_15_15
*534 FILLER_15_161
*535 FILLER_15_167
*536 FILLER_15_169
*537 FILLER_15_181
*538 FILLER_15_193
*539 FILLER_15_205
*540 FILLER_15_217
*541 FILLER_15_223
*542 FILLER_15_225
*543 FILLER_15_237
*544 FILLER_15_249
*545 FILLER_15_261
*546 FILLER_15_27
*547 FILLER_15_273
*548 FILLER_15_279
*549 FILLER_15_281
*550 FILLER_15_293
*551 FILLER_15_3
*552 FILLER_15_305
*553 FILLER_15_317
*554 FILLER_15_329
*555 FILLER_15_335
*556 FILLER_15_337
*557 FILLER_15_349
*558 FILLER_15_361
*559 FILLER_15_373
*560 FILLER_15_385
*561 FILLER_15_39
*562 FILLER_15_391
*563 FILLER_15_393
*564 FILLER_15_405
*565 FILLER_15_51
*566 FILLER_15_55
*567 FILLER_15_57
*568 FILLER_15_69
*569 FILLER_15_81
*570 FILLER_15_93
*571 FILLER_16_109
*572 FILLER_16_121
*573 FILLER_16_133
*574 FILLER_16_139
*575 FILLER_16_141
*576 FILLER_16_15
*577 FILLER_16_153
*578 FILLER_16_165
*579 FILLER_16_177
*580 FILLER_16_189
*581 FILLER_16_195
*582 FILLER_16_197
*583 FILLER_16_209
*584 FILLER_16_221
*585 FILLER_16_233
*586 FILLER_16_245
*587 FILLER_16_251
*588 FILLER_16_253
*589 FILLER_16_265
*590 FILLER_16_27
*591 FILLER_16_277
*592 FILLER_16_289
*593 FILLER_16_29
*594 FILLER_16_3
*595 FILLER_16_301
*596 FILLER_16_307
*597 FILLER_16_309
*598 FILLER_16_321
*599 FILLER_16_333
*600 FILLER_16_345
*601 FILLER_16_357
*602 FILLER_16_363
*603 FILLER_16_365
*604 FILLER_16_377
*605 FILLER_16_389
*606 FILLER_16_401
*607 FILLER_16_41
*608 FILLER_16_53
*609 FILLER_16_65
*610 FILLER_16_77
*611 FILLER_16_83
*612 FILLER_16_85
*613 FILLER_16_97
*614 FILLER_17_105
*615 FILLER_17_111
*616 FILLER_17_113
*617 FILLER_17_125
*618 FILLER_17_137
*619 FILLER_17_149
*620 FILLER_17_15
*621 FILLER_17_161
*622 FILLER_17_167
*623 FILLER_17_169
*624 FILLER_17_181
*625 FILLER_17_193
*626 FILLER_17_205
*627 FILLER_17_217
*628 FILLER_17_223
*629 FILLER_17_225
*630 FILLER_17_237
*631 FILLER_17_249
*632 FILLER_17_261
*633 FILLER_17_27
*634 FILLER_17_273
*635 FILLER_17_279
*636 FILLER_17_281
*637 FILLER_17_293
*638 FILLER_17_3
*639 FILLER_17_305
*640 FILLER_17_317
*641 FILLER_17_329
*642 FILLER_17_335
*643 FILLER_17_337
*644 FILLER_17_349
*645 FILLER_17_361
*646 FILLER_17_373
*647 FILLER_17_385
*648 FILLER_17_39
*649 FILLER_17_391
*650 FILLER_17_393
*651 FILLER_17_405
*652 FILLER_17_51
*653 FILLER_17_55
*654 FILLER_17_57
*655 FILLER_17_69
*656 FILLER_17_81
*657 FILLER_17_93
*658 FILLER_18_109
*659 FILLER_18_121
*660 FILLER_18_133
*661 FILLER_18_139
*662 FILLER_18_141
*663 FILLER_18_15
*664 FILLER_18_153
*665 FILLER_18_165
*666 FILLER_18_177
*667 FILLER_18_189
*668 FILLER_18_195
*669 FILLER_18_197
*670 FILLER_18_209
*671 FILLER_18_221
*672 FILLER_18_233
*673 FILLER_18_245
*674 FILLER_18_251
*675 FILLER_18_253
*676 FILLER_18_265
*677 FILLER_18_27
*678 FILLER_18_277
*679 FILLER_18_289
*680 FILLER_18_29
*681 FILLER_18_3
*682 FILLER_18_301
*683 FILLER_18_307
*684 FILLER_18_309
*685 FILLER_18_321
*686 FILLER_18_333
*687 FILLER_18_345
*688 FILLER_18_357
*689 FILLER_18_363
*690 FILLER_18_365
*691 FILLER_18_377
*692 FILLER_18_389
*693 FILLER_18_397
*694 FILLER_18_403
*695 FILLER_18_41
*696 FILLER_18_53
*697 FILLER_18_65
*698 FILLER_18_77
*699 FILLER_18_83
*700 FILLER_18_85
*701 FILLER_18_97
*702 FILLER_19_105
*703 FILLER_19_111
*704 FILLER_19_113
*705 FILLER_19_125
*706 FILLER_19_137
*707 FILLER_19_149
*708 FILLER_19_15
*709 FILLER_19_161
*710 FILLER_19_167
*711 FILLER_19_169
*712 FILLER_19_181
*713 FILLER_19_193
*714 FILLER_19_205
*715 FILLER_19_217
*716 FILLER_19_223
*717 FILLER_19_225
*718 FILLER_19_237
*719 FILLER_19_249
*720 FILLER_19_261
*721 FILLER_19_27
*722 FILLER_19_273
*723 FILLER_19_279
*724 FILLER_19_281
*725 FILLER_19_293
*726 FILLER_19_3
*727 FILLER_19_305
*728 FILLER_19_317
*729 FILLER_19_329
*730 FILLER_19_335
*731 FILLER_19_337
*732 FILLER_19_349
*733 FILLER_19_361
*734 FILLER_19_373
*735 FILLER_19_385
*736 FILLER_19_39
*737 FILLER_19_391
*738 FILLER_19_395
*739 FILLER_19_402
*740 FILLER_19_406
*741 FILLER_19_51
*742 FILLER_19_55
*743 FILLER_19_57
*744 FILLER_19_69
*745 FILLER_19_81
*746 FILLER_19_93
*747 FILLER_1_105
*748 FILLER_1_111
*749 FILLER_1_113
*750 FILLER_1_125
*751 FILLER_1_137
*752 FILLER_1_149
*753 FILLER_1_161
*754 FILLER_1_167
*755 FILLER_1_169
*756 FILLER_1_17
*757 FILLER_1_181
*758 FILLER_1_193
*759 FILLER_1_205
*760 FILLER_1_217
*761 FILLER_1_223
*762 FILLER_1_225
*763 FILLER_1_237
*764 FILLER_1_249
*765 FILLER_1_261
*766 FILLER_1_273
*767 FILLER_1_279
*768 FILLER_1_281
*769 FILLER_1_29
*770 FILLER_1_293
*771 FILLER_1_305
*772 FILLER_1_317
*773 FILLER_1_329
*774 FILLER_1_335
*775 FILLER_1_337
*776 FILLER_1_349
*777 FILLER_1_361
*778 FILLER_1_369
*779 FILLER_1_381
*780 FILLER_1_389
*781 FILLER_1_393
*782 FILLER_1_405
*783 FILLER_1_41
*784 FILLER_1_5
*785 FILLER_1_53
*786 FILLER_1_57
*787 FILLER_1_69
*788 FILLER_1_81
*789 FILLER_1_93
*790 FILLER_20_109
*791 FILLER_20_121
*792 FILLER_20_133
*793 FILLER_20_139
*794 FILLER_20_141
*795 FILLER_20_15
*796 FILLER_20_153
*797 FILLER_20_165
*798 FILLER_20_177
*799 FILLER_20_189
*800 FILLER_20_195
*801 FILLER_20_197
*802 FILLER_20_209
*803 FILLER_20_221
*804 FILLER_20_233
*805 FILLER_20_245
*806 FILLER_20_251
*807 FILLER_20_253
*808 FILLER_20_265
*809 FILLER_20_27
*810 FILLER_20_277
*811 FILLER_20_289
*812 FILLER_20_29
*813 FILLER_20_3
*814 FILLER_20_301
*815 FILLER_20_307
*816 FILLER_20_309
*817 FILLER_20_321
*818 FILLER_20_333
*819 FILLER_20_345
*820 FILLER_20_357
*821 FILLER_20_363
*822 FILLER_20_365
*823 FILLER_20_377
*824 FILLER_20_389
*825 FILLER_20_401
*826 FILLER_20_41
*827 FILLER_20_53
*828 FILLER_20_65
*829 FILLER_20_77
*830 FILLER_20_83
*831 FILLER_20_85
*832 FILLER_20_97
*833 FILLER_21_105
*834 FILLER_21_111
*835 FILLER_21_113
*836 FILLER_21_125
*837 FILLER_21_137
*838 FILLER_21_149
*839 FILLER_21_15
*840 FILLER_21_161
*841 FILLER_21_167
*842 FILLER_21_169
*843 FILLER_21_181
*844 FILLER_21_193
*845 FILLER_21_205
*846 FILLER_21_217
*847 FILLER_21_223
*848 FILLER_21_225
*849 FILLER_21_237
*850 FILLER_21_249
*851 FILLER_21_261
*852 FILLER_21_27
*853 FILLER_21_273
*854 FILLER_21_279
*855 FILLER_21_281
*856 FILLER_21_293
*857 FILLER_21_3
*858 FILLER_21_305
*859 FILLER_21_317
*860 FILLER_21_329
*861 FILLER_21_335
*862 FILLER_21_337
*863 FILLER_21_349
*864 FILLER_21_361
*865 FILLER_21_373
*866 FILLER_21_385
*867 FILLER_21_39
*868 FILLER_21_391
*869 FILLER_21_393
*870 FILLER_21_405
*871 FILLER_21_51
*872 FILLER_21_55
*873 FILLER_21_57
*874 FILLER_21_69
*875 FILLER_21_81
*876 FILLER_21_93
*877 FILLER_22_109
*878 FILLER_22_121
*879 FILLER_22_133
*880 FILLER_22_139
*881 FILLER_22_141
*882 FILLER_22_15
*883 FILLER_22_153
*884 FILLER_22_165
*885 FILLER_22_177
*886 FILLER_22_189
*887 FILLER_22_195
*888 FILLER_22_197
*889 FILLER_22_209
*890 FILLER_22_221
*891 FILLER_22_233
*892 FILLER_22_245
*893 FILLER_22_251
*894 FILLER_22_253
*895 FILLER_22_265
*896 FILLER_22_27
*897 FILLER_22_277
*898 FILLER_22_289
*899 FILLER_22_29
*900 FILLER_22_3
*901 FILLER_22_301
*902 FILLER_22_307
*903 FILLER_22_309
*904 FILLER_22_321
*905 FILLER_22_333
*906 FILLER_22_345
*907 FILLER_22_357
*908 FILLER_22_363
*909 FILLER_22_365
*910 FILLER_22_377
*911 FILLER_22_389
*912 FILLER_22_401
*913 FILLER_22_41
*914 FILLER_22_53
*915 FILLER_22_65
*916 FILLER_22_77
*917 FILLER_22_83
*918 FILLER_22_85
*919 FILLER_22_97
*920 FILLER_23_105
*921 FILLER_23_111
*922 FILLER_23_113
*923 FILLER_23_125
*924 FILLER_23_137
*925 FILLER_23_149
*926 FILLER_23_15
*927 FILLER_23_161
*928 FILLER_23_167
*929 FILLER_23_169
*930 FILLER_23_181
*931 FILLER_23_193
*932 FILLER_23_205
*933 FILLER_23_217
*934 FILLER_23_223
*935 FILLER_23_225
*936 FILLER_23_237
*937 FILLER_23_249
*938 FILLER_23_261
*939 FILLER_23_27
*940 FILLER_23_273
*941 FILLER_23_279
*942 FILLER_23_281
*943 FILLER_23_293
*944 FILLER_23_3
*945 FILLER_23_305
*946 FILLER_23_317
*947 FILLER_23_329
*948 FILLER_23_335
*949 FILLER_23_337
*950 FILLER_23_349
*951 FILLER_23_361
*952 FILLER_23_373
*953 FILLER_23_385
*954 FILLER_23_39
*955 FILLER_23_391
*956 FILLER_23_393
*957 FILLER_23_405
*958 FILLER_23_51
*959 FILLER_23_55
*960 FILLER_23_57
*961 FILLER_23_69
*962 FILLER_23_81
*963 FILLER_23_93
*964 FILLER_24_109
*965 FILLER_24_121
*966 FILLER_24_133
*967 FILLER_24_139
*968 FILLER_24_141
*969 FILLER_24_15
*970 FILLER_24_153
*971 FILLER_24_165
*972 FILLER_24_177
*973 FILLER_24_189
*974 FILLER_24_195
*975 FILLER_24_197
*976 FILLER_24_209
*977 FILLER_24_221
*978 FILLER_24_233
*979 FILLER_24_245
*980 FILLER_24_251
*981 FILLER_24_253
*982 FILLER_24_265
*983 FILLER_24_27
*984 FILLER_24_277
*985 FILLER_24_289
*986 FILLER_24_29
*987 FILLER_24_3
*988 FILLER_24_301
*989 FILLER_24_307
*990 FILLER_24_309
*991 FILLER_24_321
*992 FILLER_24_333
*993 FILLER_24_345
*994 FILLER_24_357
*995 FILLER_24_363
*996 FILLER_24_365
*997 FILLER_24_377
*998 FILLER_24_389
*999 FILLER_24_401
*1000 FILLER_24_41
*1001 FILLER_24_53
*1002 FILLER_24_65
*1003 FILLER_24_77
*1004 FILLER_24_83
*1005 FILLER_24_85
*1006 FILLER_24_97
*1007 FILLER_25_105
*1008 FILLER_25_111
*1009 FILLER_25_113
*1010 FILLER_25_125
*1011 FILLER_25_137
*1012 FILLER_25_149
*1013 FILLER_25_15
*1014 FILLER_25_161
*1015 FILLER_25_167
*1016 FILLER_25_169
*1017 FILLER_25_181
*1018 FILLER_25_193
*1019 FILLER_25_205
*1020 FILLER_25_217
*1021 FILLER_25_223
*1022 FILLER_25_225
*1023 FILLER_25_237
*1024 FILLER_25_249
*1025 FILLER_25_261
*1026 FILLER_25_27
*1027 FILLER_25_273
*1028 FILLER_25_279
*1029 FILLER_25_281
*1030 FILLER_25_293
*1031 FILLER_25_3
*1032 FILLER_25_305
*1033 FILLER_25_317
*1034 FILLER_25_329
*1035 FILLER_25_335
*1036 FILLER_25_337
*1037 FILLER_25_349
*1038 FILLER_25_361
*1039 FILLER_25_373
*1040 FILLER_25_385
*1041 FILLER_25_39
*1042 FILLER_25_391
*1043 FILLER_25_393
*1044 FILLER_25_405
*1045 FILLER_25_51
*1046 FILLER_25_55
*1047 FILLER_25_57
*1048 FILLER_25_69
*1049 FILLER_25_81
*1050 FILLER_25_93
*1051 FILLER_26_109
*1052 FILLER_26_121
*1053 FILLER_26_133
*1054 FILLER_26_139
*1055 FILLER_26_141
*1056 FILLER_26_15
*1057 FILLER_26_153
*1058 FILLER_26_165
*1059 FILLER_26_177
*1060 FILLER_26_189
*1061 FILLER_26_195
*1062 FILLER_26_197
*1063 FILLER_26_209
*1064 FILLER_26_221
*1065 FILLER_26_233
*1066 FILLER_26_245
*1067 FILLER_26_251
*1068 FILLER_26_253
*1069 FILLER_26_265
*1070 FILLER_26_27
*1071 FILLER_26_277
*1072 FILLER_26_289
*1073 FILLER_26_29
*1074 FILLER_26_3
*1075 FILLER_26_301
*1076 FILLER_26_307
*1077 FILLER_26_309
*1078 FILLER_26_321
*1079 FILLER_26_333
*1080 FILLER_26_345
*1081 FILLER_26_357
*1082 FILLER_26_363
*1083 FILLER_26_365
*1084 FILLER_26_377
*1085 FILLER_26_389
*1086 FILLER_26_401
*1087 FILLER_26_41
*1088 FILLER_26_53
*1089 FILLER_26_65
*1090 FILLER_26_77
*1091 FILLER_26_83
*1092 FILLER_26_85
*1093 FILLER_26_97
*1094 FILLER_27_105
*1095 FILLER_27_111
*1096 FILLER_27_113
*1097 FILLER_27_125
*1098 FILLER_27_137
*1099 FILLER_27_149
*1100 FILLER_27_15
*1101 FILLER_27_161
*1102 FILLER_27_167
*1103 FILLER_27_169
*1104 FILLER_27_181
*1105 FILLER_27_193
*1106 FILLER_27_205
*1107 FILLER_27_217
*1108 FILLER_27_223
*1109 FILLER_27_225
*1110 FILLER_27_237
*1111 FILLER_27_249
*1112 FILLER_27_261
*1113 FILLER_27_27
*1114 FILLER_27_273
*1115 FILLER_27_279
*1116 FILLER_27_281
*1117 FILLER_27_293
*1118 FILLER_27_3
*1119 FILLER_27_305
*1120 FILLER_27_317
*1121 FILLER_27_329
*1122 FILLER_27_335
*1123 FILLER_27_337
*1124 FILLER_27_349
*1125 FILLER_27_361
*1126 FILLER_27_373
*1127 FILLER_27_385
*1128 FILLER_27_39
*1129 FILLER_27_391
*1130 FILLER_27_393
*1131 FILLER_27_405
*1132 FILLER_27_51
*1133 FILLER_27_55
*1134 FILLER_27_57
*1135 FILLER_27_69
*1136 FILLER_27_81
*1137 FILLER_27_93
*1138 FILLER_28_109
*1139 FILLER_28_121
*1140 FILLER_28_133
*1141 FILLER_28_139
*1142 FILLER_28_141
*1143 FILLER_28_15
*1144 FILLER_28_153
*1145 FILLER_28_165
*1146 FILLER_28_177
*1147 FILLER_28_189
*1148 FILLER_28_195
*1149 FILLER_28_197
*1150 FILLER_28_209
*1151 FILLER_28_221
*1152 FILLER_28_233
*1153 FILLER_28_245
*1154 FILLER_28_251
*1155 FILLER_28_253
*1156 FILLER_28_265
*1157 FILLER_28_27
*1158 FILLER_28_277
*1159 FILLER_28_289
*1160 FILLER_28_29
*1161 FILLER_28_3
*1162 FILLER_28_301
*1163 FILLER_28_307
*1164 FILLER_28_309
*1165 FILLER_28_321
*1166 FILLER_28_333
*1167 FILLER_28_345
*1168 FILLER_28_357
*1169 FILLER_28_363
*1170 FILLER_28_365
*1171 FILLER_28_377
*1172 FILLER_28_389
*1173 FILLER_28_401
*1174 FILLER_28_41
*1175 FILLER_28_53
*1176 FILLER_28_65
*1177 FILLER_28_77
*1178 FILLER_28_83
*1179 FILLER_28_85
*1180 FILLER_28_97
*1181 FILLER_29_105
*1182 FILLER_29_111
*1183 FILLER_29_113
*1184 FILLER_29_12
*1185 FILLER_29_125
*1186 FILLER_29_137
*1187 FILLER_29_149
*1188 FILLER_29_161
*1189 FILLER_29_167
*1190 FILLER_29_169
*1191 FILLER_29_181
*1192 FILLER_29_193
*1193 FILLER_29_205
*1194 FILLER_29_217
*1195 FILLER_29_223
*1196 FILLER_29_225
*1197 FILLER_29_237
*1198 FILLER_29_24
*1199 FILLER_29_249
*1200 FILLER_29_261
*1201 FILLER_29_273
*1202 FILLER_29_279
*1203 FILLER_29_281
*1204 FILLER_29_293
*1205 FILLER_29_305
*1206 FILLER_29_317
*1207 FILLER_29_329
*1208 FILLER_29_335
*1209 FILLER_29_337
*1210 FILLER_29_349
*1211 FILLER_29_36
*1212 FILLER_29_361
*1213 FILLER_29_373
*1214 FILLER_29_385
*1215 FILLER_29_391
*1216 FILLER_29_393
*1217 FILLER_29_405
*1218 FILLER_29_48
*1219 FILLER_29_57
*1220 FILLER_29_6
*1221 FILLER_29_69
*1222 FILLER_29_81
*1223 FILLER_29_93
*1224 FILLER_2_109
*1225 FILLER_2_121
*1226 FILLER_2_133
*1227 FILLER_2_139
*1228 FILLER_2_141
*1229 FILLER_2_15
*1230 FILLER_2_153
*1231 FILLER_2_165
*1232 FILLER_2_177
*1233 FILLER_2_189
*1234 FILLER_2_195
*1235 FILLER_2_197
*1236 FILLER_2_209
*1237 FILLER_2_221
*1238 FILLER_2_233
*1239 FILLER_2_245
*1240 FILLER_2_251
*1241 FILLER_2_253
*1242 FILLER_2_265
*1243 FILLER_2_27
*1244 FILLER_2_277
*1245 FILLER_2_289
*1246 FILLER_2_29
*1247 FILLER_2_3
*1248 FILLER_2_301
*1249 FILLER_2_307
*1250 FILLER_2_309
*1251 FILLER_2_321
*1252 FILLER_2_333
*1253 FILLER_2_345
*1254 FILLER_2_357
*1255 FILLER_2_363
*1256 FILLER_2_365
*1257 FILLER_2_377
*1258 FILLER_2_389
*1259 FILLER_2_401
*1260 FILLER_2_41
*1261 FILLER_2_53
*1262 FILLER_2_65
*1263 FILLER_2_77
*1264 FILLER_2_83
*1265 FILLER_2_85
*1266 FILLER_2_97
*1267 FILLER_30_109
*1268 FILLER_30_121
*1269 FILLER_30_133
*1270 FILLER_30_139
*1271 FILLER_30_141
*1272 FILLER_30_15
*1273 FILLER_30_153
*1274 FILLER_30_165
*1275 FILLER_30_177
*1276 FILLER_30_189
*1277 FILLER_30_195
*1278 FILLER_30_197
*1279 FILLER_30_209
*1280 FILLER_30_221
*1281 FILLER_30_233
*1282 FILLER_30_245
*1283 FILLER_30_251
*1284 FILLER_30_253
*1285 FILLER_30_265
*1286 FILLER_30_27
*1287 FILLER_30_277
*1288 FILLER_30_289
*1289 FILLER_30_29
*1290 FILLER_30_3
*1291 FILLER_30_301
*1292 FILLER_30_307
*1293 FILLER_30_309
*1294 FILLER_30_321
*1295 FILLER_30_333
*1296 FILLER_30_345
*1297 FILLER_30_357
*1298 FILLER_30_363
*1299 FILLER_30_365
*1300 FILLER_30_377
*1301 FILLER_30_389
*1302 FILLER_30_401
*1303 FILLER_30_41
*1304 FILLER_30_53
*1305 FILLER_30_65
*1306 FILLER_30_77
*1307 FILLER_30_83
*1308 FILLER_30_85
*1309 FILLER_30_97
*1310 FILLER_31_105
*1311 FILLER_31_111
*1312 FILLER_31_113
*1313 FILLER_31_125
*1314 FILLER_31_137
*1315 FILLER_31_149
*1316 FILLER_31_15
*1317 FILLER_31_161
*1318 FILLER_31_167
*1319 FILLER_31_169
*1320 FILLER_31_181
*1321 FILLER_31_193
*1322 FILLER_31_205
*1323 FILLER_31_217
*1324 FILLER_31_223
*1325 FILLER_31_225
*1326 FILLER_31_237
*1327 FILLER_31_249
*1328 FILLER_31_261
*1329 FILLER_31_27
*1330 FILLER_31_273
*1331 FILLER_31_279
*1332 FILLER_31_281
*1333 FILLER_31_293
*1334 FILLER_31_3
*1335 FILLER_31_305
*1336 FILLER_31_317
*1337 FILLER_31_329
*1338 FILLER_31_335
*1339 FILLER_31_337
*1340 FILLER_31_349
*1341 FILLER_31_361
*1342 FILLER_31_373
*1343 FILLER_31_385
*1344 FILLER_31_39
*1345 FILLER_31_391
*1346 FILLER_31_393
*1347 FILLER_31_405
*1348 FILLER_31_51
*1349 FILLER_31_55
*1350 FILLER_31_57
*1351 FILLER_31_69
*1352 FILLER_31_81
*1353 FILLER_31_93
*1354 FILLER_32_109
*1355 FILLER_32_121
*1356 FILLER_32_133
*1357 FILLER_32_139
*1358 FILLER_32_141
*1359 FILLER_32_15
*1360 FILLER_32_153
*1361 FILLER_32_165
*1362 FILLER_32_177
*1363 FILLER_32_189
*1364 FILLER_32_195
*1365 FILLER_32_197
*1366 FILLER_32_209
*1367 FILLER_32_221
*1368 FILLER_32_233
*1369 FILLER_32_245
*1370 FILLER_32_251
*1371 FILLER_32_253
*1372 FILLER_32_265
*1373 FILLER_32_27
*1374 FILLER_32_277
*1375 FILLER_32_289
*1376 FILLER_32_29
*1377 FILLER_32_3
*1378 FILLER_32_301
*1379 FILLER_32_307
*1380 FILLER_32_309
*1381 FILLER_32_321
*1382 FILLER_32_333
*1383 FILLER_32_345
*1384 FILLER_32_357
*1385 FILLER_32_363
*1386 FILLER_32_365
*1387 FILLER_32_377
*1388 FILLER_32_389
*1389 FILLER_32_401
*1390 FILLER_32_41
*1391 FILLER_32_53
*1392 FILLER_32_65
*1393 FILLER_32_77
*1394 FILLER_32_83
*1395 FILLER_32_85
*1396 FILLER_32_97
*1397 FILLER_33_105
*1398 FILLER_33_111
*1399 FILLER_33_113
*1400 FILLER_33_125
*1401 FILLER_33_137
*1402 FILLER_33_149
*1403 FILLER_33_15
*1404 FILLER_33_161
*1405 FILLER_33_167
*1406 FILLER_33_169
*1407 FILLER_33_181
*1408 FILLER_33_193
*1409 FILLER_33_198
*1410 FILLER_33_206
*1411 FILLER_33_211
*1412 FILLER_33_223
*1413 FILLER_33_227
*1414 FILLER_33_233
*1415 FILLER_33_245
*1416 FILLER_33_257
*1417 FILLER_33_269
*1418 FILLER_33_27
*1419 FILLER_33_277
*1420 FILLER_33_281
*1421 FILLER_33_293
*1422 FILLER_33_3
*1423 FILLER_33_305
*1424 FILLER_33_317
*1425 FILLER_33_329
*1426 FILLER_33_335
*1427 FILLER_33_337
*1428 FILLER_33_349
*1429 FILLER_33_361
*1430 FILLER_33_373
*1431 FILLER_33_385
*1432 FILLER_33_39
*1433 FILLER_33_391
*1434 FILLER_33_393
*1435 FILLER_33_405
*1436 FILLER_33_51
*1437 FILLER_33_55
*1438 FILLER_33_57
*1439 FILLER_33_69
*1440 FILLER_33_81
*1441 FILLER_33_93
*1442 FILLER_34_109
*1443 FILLER_34_121
*1444 FILLER_34_133
*1445 FILLER_34_139
*1446 FILLER_34_141
*1447 FILLER_34_15
*1448 FILLER_34_153
*1449 FILLER_34_165
*1450 FILLER_34_177
*1451 FILLER_34_189
*1452 FILLER_34_192
*1453 FILLER_34_197
*1454 FILLER_34_205
*1455 FILLER_34_213
*1456 FILLER_34_224
*1457 FILLER_34_231
*1458 FILLER_34_237
*1459 FILLER_34_249
*1460 FILLER_34_253
*1461 FILLER_34_265
*1462 FILLER_34_27
*1463 FILLER_34_277
*1464 FILLER_34_289
*1465 FILLER_34_29
*1466 FILLER_34_3
*1467 FILLER_34_301
*1468 FILLER_34_307
*1469 FILLER_34_309
*1470 FILLER_34_321
*1471 FILLER_34_333
*1472 FILLER_34_345
*1473 FILLER_34_357
*1474 FILLER_34_363
*1475 FILLER_34_365
*1476 FILLER_34_377
*1477 FILLER_34_389
*1478 FILLER_34_401
*1479 FILLER_34_41
*1480 FILLER_34_53
*1481 FILLER_34_65
*1482 FILLER_34_77
*1483 FILLER_34_83
*1484 FILLER_34_85
*1485 FILLER_34_97
*1486 FILLER_35_105
*1487 FILLER_35_111
*1488 FILLER_35_113
*1489 FILLER_35_125
*1490 FILLER_35_137
*1491 FILLER_35_149
*1492 FILLER_35_15
*1493 FILLER_35_161
*1494 FILLER_35_167
*1495 FILLER_35_169
*1496 FILLER_35_181
*1497 FILLER_35_187
*1498 FILLER_35_193
*1499 FILLER_35_201
*1500 FILLER_35_209
*1501 FILLER_35_219
*1502 FILLER_35_223
*1503 FILLER_35_242
*1504 FILLER_35_248
*1505 FILLER_35_260
*1506 FILLER_35_27
*1507 FILLER_35_272
*1508 FILLER_35_281
*1509 FILLER_35_293
*1510 FILLER_35_3
*1511 FILLER_35_305
*1512 FILLER_35_317
*1513 FILLER_35_329
*1514 FILLER_35_335
*1515 FILLER_35_337
*1516 FILLER_35_349
*1517 FILLER_35_361
*1518 FILLER_35_373
*1519 FILLER_35_385
*1520 FILLER_35_39
*1521 FILLER_35_391
*1522 FILLER_35_393
*1523 FILLER_35_405
*1524 FILLER_35_51
*1525 FILLER_35_55
*1526 FILLER_35_57
*1527 FILLER_35_69
*1528 FILLER_35_81
*1529 FILLER_35_93
*1530 FILLER_36_109
*1531 FILLER_36_121
*1532 FILLER_36_133
*1533 FILLER_36_139
*1534 FILLER_36_141
*1535 FILLER_36_15
*1536 FILLER_36_153
*1537 FILLER_36_165
*1538 FILLER_36_170
*1539 FILLER_36_185
*1540 FILLER_36_189
*1541 FILLER_36_192
*1542 FILLER_36_197
*1543 FILLER_36_201
*1544 FILLER_36_216
*1545 FILLER_36_222
*1546 FILLER_36_230
*1547 FILLER_36_237
*1548 FILLER_36_244
*1549 FILLER_36_253
*1550 FILLER_36_265
*1551 FILLER_36_27
*1552 FILLER_36_277
*1553 FILLER_36_289
*1554 FILLER_36_29
*1555 FILLER_36_3
*1556 FILLER_36_301
*1557 FILLER_36_307
*1558 FILLER_36_309
*1559 FILLER_36_321
*1560 FILLER_36_333
*1561 FILLER_36_345
*1562 FILLER_36_357
*1563 FILLER_36_363
*1564 FILLER_36_365
*1565 FILLER_36_377
*1566 FILLER_36_389
*1567 FILLER_36_401
*1568 FILLER_36_41
*1569 FILLER_36_53
*1570 FILLER_36_65
*1571 FILLER_36_77
*1572 FILLER_36_83
*1573 FILLER_36_85
*1574 FILLER_36_97
*1575 FILLER_37_105
*1576 FILLER_37_111
*1577 FILLER_37_113
*1578 FILLER_37_125
*1579 FILLER_37_137
*1580 FILLER_37_15
*1581 FILLER_37_152
*1582 FILLER_37_161
*1583 FILLER_37_167
*1584 FILLER_37_169
*1585 FILLER_37_178
*1586 FILLER_37_189
*1587 FILLER_37_199
*1588 FILLER_37_209
*1589 FILLER_37_220
*1590 FILLER_37_231
*1591 FILLER_37_237
*1592 FILLER_37_243
*1593 FILLER_37_249
*1594 FILLER_37_261
*1595 FILLER_37_27
*1596 FILLER_37_273
*1597 FILLER_37_279
*1598 FILLER_37_281
*1599 FILLER_37_293
*1600 FILLER_37_3
*1601 FILLER_37_305
*1602 FILLER_37_317
*1603 FILLER_37_329
*1604 FILLER_37_335
*1605 FILLER_37_337