*SPEF "ieee 1481-1999"
*DESIGN "execute"
*DATE "11:11:11 Fri 11 11, 1111"
*VENDOR "OpenRCX"
*PROGRAM "Parallel Extraction"
*VERSION "1.0"
*DESIGN_FLOW "NAME_SCOPE LOCAL" "PIN_CAP NONE"
*DIVIDER /
*DELIMITER :
*BUS_DELIMITER []
*T_UNIT 1 NS
*C_UNIT 1 PF
*R_UNIT 1 OHM
*L_UNIT 1 HENRY

*NAME_MAP
*1 c_alu_carry_en
*2 c_alu_flags_ie
*3 c_alu_mode[0]
*4 c_alu_mode[1]
*5 c_alu_mode[2]
*6 c_alu_mode[3]
*7 c_jump_cond_code[0]
*8 c_jump_cond_code[1]
*9 c_jump_cond_code[2]
*10 c_jump_cond_code[3]
*11 c_jump_cond_code[4]
*12 c_l_reg_sel[0]
*13 c_l_reg_sel[1]
*14 c_l_reg_sel[2]
*15 c_mem_access
*16 c_mem_we
*17 c_mem_width
*18 c_pc_ie
*19 c_pc_inc
*20 c_r_bus_imm
*21 c_r_reg_sel[0]
*22 c_r_reg_sel[1]
*23 c_r_reg_sel[2]
*24 c_rf_ie[0]
*25 c_rf_ie[1]
*26 c_rf_ie[2]
*27 c_rf_ie[3]
*28 c_rf_ie[4]
*29 c_rf_ie[5]
*30 c_rf_ie[6]
*31 c_rf_ie[7]
*32 c_sreg_irt
*33 c_sreg_jal_over
*34 c_sreg_load
*35 c_sreg_store
*36 c_sys
*37 c_used_operands[0]
*38 c_used_operands[1]
*39 dbg_pc[0]
*40 dbg_pc[10]
*41 dbg_pc[11]
*42 dbg_pc[12]
*43 dbg_pc[13]
*44 dbg_pc[14]
*45 dbg_pc[15]
*46 dbg_pc[1]
*47 dbg_pc[2]
*48 dbg_pc[3]
*49 dbg_pc[4]
*50 dbg_pc[5]
*51 dbg_pc[6]
*52 dbg_pc[7]
*53 dbg_pc[8]
*54 dbg_pc[9]
*55 dbg_r0[0]
*56 dbg_r0[10]
*57 dbg_r0[11]
*58 dbg_r0[12]
*59 dbg_r0[13]
*60 dbg_r0[14]
*61 dbg_r0[15]
*62 dbg_r0[1]
*63 dbg_r0[2]
*64 dbg_r0[3]
*65 dbg_r0[4]
*66 dbg_r0[5]
*67 dbg_r0[6]
*68 dbg_r0[7]
*69 dbg_r0[8]
*70 dbg_r0[9]
*71 i_clk
*72 i_flush
*73 i_imm[0]
*74 i_imm[10]
*75 i_imm[11]
*76 i_imm[12]
*77 i_imm[13]
*78 i_imm[14]
*79 i_imm[15]
*80 i_imm[1]
*81 i_imm[2]
*82 i_imm[3]
*83 i_imm[4]
*84 i_imm[5]
*85 i_imm[6]
*86 i_imm[7]
*87 i_imm[8]
*88 i_imm[9]
*89 i_irq
*90 i_jmp_predict
*91 i_mem_exception
*92 i_next_ready
*93 i_reg_data[0]
*94 i_reg_data[10]
*95 i_reg_data[11]
*96 i_reg_data[12]
*97 i_reg_data[13]
*98 i_reg_data[14]
*99 i_reg_data[15]
*100 i_reg_data[1]
*101 i_reg_data[2]
*102 i_reg_data[3]
*103 i_reg_data[4]
*104 i_reg_data[5]
*105 i_reg_data[6]
*106 i_reg_data[7]
*107 i_reg_data[8]
*108 i_reg_data[9]
*109 i_reg_ie[0]
*110 i_reg_ie[1]
*111 i_reg_ie[2]
*112 i_reg_ie[3]
*113 i_reg_ie[4]
*114 i_reg_ie[5]
*115 i_reg_ie[6]
*116 i_reg_ie[7]
*117 i_rst
*118 i_submit
*119 o_addr[0]
*120 o_addr[10]
*121 o_addr[11]
*122 o_addr[12]
*123 o_addr[13]
*124 o_addr[14]
*125 o_addr[15]
*126 o_addr[1]
*127 o_addr[2]
*128 o_addr[3]
*129 o_addr[4]
*130 o_addr[5]
*131 o_addr[6]
*132 o_addr[7]
*133 o_addr[8]
*134 o_addr[9]
*135 o_c_data_page
*136 o_c_instr_page
*137 o_data[0]
*138 o_data[10]
*139 o_data[11]
*140 o_data[12]
*141 o_data[13]
*142 o_data[14]
*143 o_data[15]
*144 o_data[1]
*145 o_data[2]
*146 o_data[3]
*147 o_data[4]
*148 o_data[5]
*149 o_data[6]
*150 o_data[7]
*151 o_data[8]
*152 o_data[9]
*153 o_exec_pc[0]
*154 o_exec_pc[10]
*155 o_exec_pc[11]
*156 o_exec_pc[12]
*157 o_exec_pc[13]
*158 o_exec_pc[14]
*159 o_exec_pc[15]
*160 o_exec_pc[1]
*161 o_exec_pc[2]
*162 o_exec_pc[3]
*163 o_exec_pc[4]
*164 o_exec_pc[5]
*165 o_exec_pc[6]
*166 o_exec_pc[7]
*167 o_exec_pc[8]
*168 o_exec_pc[9]
*169 o_flush
*170 o_icache_flush
*171 o_mem_access
*172 o_mem_we
*173 o_mem_width
*174 o_pc_update
*175 o_ready
*176 o_reg_ie[0]
*177 o_reg_ie[1]
*178 o_reg_ie[2]
*179 o_reg_ie[3]
*180 o_reg_ie[4]
*181 o_reg_ie[5]
*182 o_reg_ie[6]
*183 o_reg_ie[7]
*184 o_submit
*185 sr_bus_addr[0]
*186 sr_bus_addr[10]
*187 sr_bus_addr[11]
*188 sr_bus_addr[12]
*189 sr_bus_addr[13]
*190 sr_bus_addr[14]
*191 sr_bus_addr[15]
*192 sr_bus_addr[1]
*193 sr_bus_addr[2]
*194 sr_bus_addr[3]
*195 sr_bus_addr[4]
*196 sr_bus_addr[5]
*197 sr_bus_addr[6]
*198 sr_bus_addr[7]
*199 sr_bus_addr[8]
*200 sr_bus_addr[9]
*201 sr_bus_data_o[0]
*202 sr_bus_data_o[10]
*203 sr_bus_data_o[11]
*204 sr_bus_data_o[12]
*205 sr_bus_data_o[13]
*206 sr_bus_data_o[14]
*207 sr_bus_data_o[15]
*208 sr_bus_data_o[1]
*209 sr_bus_data_o[2]
*210 sr_bus_data_o[3]
*211 sr_bus_data_o[4]
*212 sr_bus_data_o[5]
*213 sr_bus_data_o[6]
*214 sr_bus_data_o[7]
*215 sr_bus_data_o[8]
*216 sr_bus_data_o[9]
*217 sr_bus_we
*220 _0000_
*221 _0001_
*222 _0002_
*223 _0003_
*224 _0004_
*225 _0005_
*226 _0006_
*227 _0007_
*228 _0008_
*229 _0009_
*230 _0010_
*231 _0011_
*232 _0012_
*233 _0013_
*234 _0014_
*235 _0015_
*236 _0016_
*237 _0017_
*238 _0018_
*239 _0019_
*240 _0020_
*241 _0021_
*242 _0022_
*243 _0023_
*244 _0024_
*245 _0025_
*246 _0026_
*247 _0027_
*248 _0028_
*249 _0029_
*250 _0030_
*251 _0031_
*252 _0032_
*253 _0033_
*254 _0034_
*255 _0035_
*256 _0036_
*257 _0037_
*258 _0038_
*259 _0039_
*260 _0040_
*261 _0041_
*262 _0042_
*263 _0043_
*264 _0044_
*265 _0045_
*266 _0046_
*267 _0047_
*268 _0048_
*269 _0049_
*270 _0050_
*271 _0051_
*272 _0052_
*273 _0053_
*274 _0054_
*275 _0055_
*276 _0056_
*277 _0057_
*278 _0058_
*279 _0059_
*280 _0060_
*281 _0061_
*282 _0062_
*283 _0063_
*284 _0064_
*285 _0065_
*286 _0066_
*287 _0067_
*288 _0068_
*289 _0069_
*290 _0070_
*291 _0071_
*292 _0072_
*293 _0073_
*294 _0074_
*295 _0075_
*296 _0076_
*297 _0077_
*298 _0078_
*299 _0079_
*300 _0080_
*301 _0081_
*302 _0082_
*303 _0083_
*304 _0084_
*305 _0085_
*306 _0086_
*307 _0087_
*308 _0088_
*309 _0089_
*310 _0090_
*311 _0091_
*312 _0092_
*313 _0093_
*314 _0094_
*315 _0095_
*316 _0096_
*317 _0097_
*318 _0098_
*319 _0099_
*320 _0100_
*321 _0101_
*322 _0102_
*323 _0103_
*324 _0104_
*325 _0105_
*326 _0106_
*327 _0107_
*328 _0108_
*329 _0109_
*330 _0110_
*331 _0111_
*332 _0112_
*333 _0113_
*334 _0114_
*335 _0115_
*336 _0116_
*337 _0117_
*338 _0118_
*339 _0119_
*340 _0120_
*341 _0121_
*342 _0122_
*343 _0123_
*344 _0124_
*345 _0125_
*346 _0126_
*347 _0127_
*348 _0128_
*349 _0129_
*350 _0130_
*351 _0131_
*352 _0132_
*353 _0133_
*354 _0134_
*355 _0135_
*356 _0136_
*357 _0137_
*358 _0138_
*359 _0139_
*360 _0140_
*361 _0141_
*362 _0142_
*363 _0143_
*364 _0144_
*365 _0145_
*366 _0146_
*367 _0147_
*368 _0148_
*369 _0149_
*370 _0150_
*371 _0151_
*372 _0152_
*373 _0153_
*374 _0154_
*375 _0155_
*376 _0156_
*377 _0157_
*378 _0158_
*379 _0159_
*380 _0160_
*381 _0161_
*382 _0162_
*383 _0163_
*384 _0164_
*385 _0165_
*386 _0166_
*387 _0167_
*388 _0168_
*389 _0169_
*390 _0170_
*391 _0171_
*392 _0172_
*393 _0173_
*394 _0174_
*395 _0175_
*396 _0176_
*397 _0177_
*398 _0178_
*399 _0179_
*400 _0180_
*401 _0181_
*402 _0182_
*403 _0183_
*404 _0184_
*405 _0185_
*406 _0186_
*407 _0187_
*408 _0188_
*409 _0189_
*410 _0190_
*411 _0191_
*412 _0192_
*413 _0193_
*414 _0194_
*415 _0195_
*416 _0196_
*417 _0197_
*418 _0198_
*419 _0199_
*420 _0200_
*421 _0201_
*422 _0202_
*423 _0203_
*424 _0204_
*425 _0205_
*426 _0206_
*427 _0207_
*428 _0208_
*429 _0209_
*430 _0210_
*431 _0211_
*432 _0212_
*433 _0213_
*434 _0214_
*435 _0215_
*436 _0216_
*437 _0217_
*438 _0218_
*439 _0219_
*440 _0220_
*441 _0221_
*442 _0222_
*443 _0223_
*444 _0224_
*445 _0225_
*446 _0226_
*447 _0227_
*448 _0228_
*449 _0229_
*450 _0230_
*451 _0231_
*452 _0232_
*453 _0233_
*454 _0234_
*455 _0235_
*456 _0236_
*457 _0237_
*458 _0238_
*459 _0239_
*460 _0240_
*461 _0241_
*462 _0242_
*463 _0243_
*464 _0244_
*465 _0245_
*466 _0246_
*467 _0247_
*468 _0248_
*469 _0249_
*470 _0250_
*471 _0251_
*472 _0252_
*473 _0253_
*474 _0254_
*475 _0255_
*476 _0256_
*477 _0257_
*478 _0258_
*479 _0259_
*480 _0260_
*481 _0261_
*482 _0262_
*483 _0263_
*484 _0264_
*485 _0265_
*486 _0266_
*487 _0267_
*488 _0268_
*489 _0269_
*490 _0270_
*491 _0271_
*492 _0272_
*493 _0273_
*494 _0274_
*495 _0275_
*496 _0276_
*497 _0277_
*498 _0278_
*499 _0279_
*500 _0280_
*501 _0281_
*502 _0282_
*503 _0283_
*504 _0284_
*505 _0285_
*506 _0286_
*507 _0287_
*508 _0288_
*509 _0289_
*510 _0290_
*511 _0291_
*512 _0292_
*513 _0293_
*514 _0294_
*515 _0295_
*516 _0296_
*517 _0297_
*518 _0298_
*519 _0299_
*520 _0300_
*521 _0301_
*522 _0302_
*523 _0303_
*524 _0304_
*525 _0305_
*526 _0306_
*527 _0307_
*528 _0308_
*529 _0309_
*530 _0310_
*531 _0311_
*532 _0312_
*533 _0313_
*534 _0314_
*535 _0315_
*536 _0316_
*537 _0317_
*538 _0318_
*539 _0319_
*540 _0320_
*541 _0321_
*542 _0322_
*543 _0323_
*544 _0324_
*545 _0325_
*546 _0326_
*547 _0327_
*548 _0328_
*549 _0329_
*550 _0330_
*551 _0331_
*552 _0332_
*553 _0333_
*554 _0334_
*555 _0335_
*556 _0336_
*557 _0337_
*558 _0338_
*559 _0339_
*560 _0340_
*561 _0341_
*562 _0342_
*563 _0343_
*564 _0344_
*565 _0345_
*566 _0346_
*567 _0347_
*568 _0348_
*569 _0349_
*570 _0350_
*571 _0351_
*572 _0352_
*573 _0353_
*574 _0354_
*575 _0355_
*576 _0356_
*577 _0357_
*578 _0358_
*579 _0359_
*580 _0360_
*581 _0361_
*582 _0362_
*583 _0363_
*584 _0364_
*585 _0365_
*586 _0366_
*587 _0367_
*588 _0368_
*589 _0369_
*590 _0370_
*591 _0371_
*592 _0372_
*593 _0373_
*594 _0374_
*595 _0375_
*596 _0376_
*597 _0377_
*598 _0378_
*599 _0379_
*600 _0380_
*601 _0381_
*602 _0382_
*603 _0383_
*604 _0384_
*605 _0385_
*606 _0386_
*607 _0387_
*608 _0388_
*609 _0389_
*610 _0390_
*611 _0391_
*612 _0392_
*613 _0393_
*614 _0394_
*615 _0395_
*616 _0396_
*617 _0397_
*618 _0398_
*619 _0399_
*620 _0400_
*621 _0401_
*622 _0402_
*623 _0403_
*624 _0404_
*625 _0405_
*626 _0406_
*627 _0407_
*628 _0408_
*629 _0409_
*630 _0410_
*631 _0411_
*632 _0412_
*633 _0413_
*634 _0414_
*635 _0415_
*636 _0416_
*637 _0417_
*638 _0418_
*639 _0419_
*640 _0420_
*641 _0421_
*642 _0422_
*643 _0423_
*644 _0424_
*645 _0425_
*646 _0426_
*647 _0427_
*648 _0428_
*649 _0429_
*650 _0430_
*651 _0431_
*652 _0432_
*653 _0433_
*654 _0434_
*655 _0435_
*656 _0436_
*657 _0437_
*658 _0438_
*659 _0439_
*660 _0440_
*661 _0441_
*662 _0442_
*663 _0443_
*664 _0444_
*665 _0445_
*666 _0446_
*667 _0447_
*668 _0448_
*669 _0449_
*670 _0450_
*671 _0451_
*672 _0452_
*673 _0453_
*674 _0454_
*675 _0455_
*676 _0456_
*677 _0457_
*678 _0458_
*679 _0459_
*680 _0460_
*681 _0461_
*682 _0462_
*683 _0463_
*684 _0464_
*685 _0465_
*686 _0466_
*687 _0467_
*688 _0468_
*689 _0469_
*690 _0470_
*691 _0471_
*692 _0472_
*693 _0473_
*694 _0474_
*695 _0475_
*696 _0476_
*697 _0477_
*698 _0478_
*699 _0479_
*700 _0480_
*701 _0481_
*702 _0482_
*703 _0483_
*704 _0484_
*705 _0485_
*706 _0486_
*707 _0487_
*708 _0488_
*709 _0489_
*710 _0490_
*711 _0491_
*712 _0492_
*713 _0493_
*714 _0494_
*715 _0495_
*716 _0496_
*717 _0497_
*718 _0498_
*719 _0499_
*720 _0500_
*721 _0501_
*722 _0502_
*723 _0503_
*724 _0504_
*725 _0505_
*726 _0506_
*727 _0507_
*728 _0508_
*729 _0509_
*730 _0510_
*731 _0511_
*732 _0512_
*733 _0513_
*734 _0514_
*735 _0515_
*736 _0516_
*737 _0517_
*738 _0518_
*739 _0519_
*740 _0520_
*741 _0521_
*742 _0522_
*743 _0523_
*744 _0524_
*745 _0525_
*746 _0526_
*747 _0527_
*748 _0528_
*749 _0529_
*750 _0530_
*751 _0531_
*752 _0532_
*753 _0533_
*754 _0534_
*755 _0535_
*756 _0536_
*757 _0537_
*758 _0538_
*759 _0539_
*760 _0540_
*761 _0541_
*762 _0542_
*763 _0543_
*764 _0544_
*765 _0545_
*766 _0546_
*767 _0547_
*768 _0548_
*769 _0549_
*770 _0550_
*771 _0551_
*772 _0552_
*773 _0553_
*774 _0554_
*775 _0555_
*776 _0556_
*777 _0557_
*778 _0558_
*779 _0559_
*780 _0560_
*781 _0561_
*782 _0562_
*783 _0563_
*784 _0564_
*785 _0565_
*786 _0566_
*787 _0567_
*788 _0568_
*789 _0569_
*790 _0570_
*791 _0571_
*792 _0572_
*793 _0573_
*794 _0574_
*795 _0575_
*796 _0576_
*797 _0577_
*798 _0578_
*799 _0579_
*800 _0580_
*801 _0581_
*802 _0582_
*803 _0583_
*804 _0584_
*805 _0585_
*806 _0586_
*807 _0587_
*808 _0588_
*809 _0589_
*810 _0590_
*811 _0591_
*812 _0592_
*813 _0593_
*814 _0594_
*815 _0595_
*816 _0596_
*817 _0597_
*818 _0598_
*819 _0599_
*820 _0600_
*821 _0601_
*822 _0602_
*823 _0603_
*824 _0604_
*825 _0605_
*826 _0606_
*827 _0607_
*828 _0608_
*829 _0609_
*830 _0610_
*831 _0611_
*832 _0612_
*833 _0613_
*834 _0614_
*835 _0615_
*836 _0616_
*837 _0617_
*838 _0618_
*839 _0619_
*840 _0620_
*841 _0621_
*842 _0622_
*843 _0623_
*844 _0624_
*845 _0625_
*846 _0626_
*847 _0627_
*848 _0628_
*849 _0629_
*850 _0630_
*851 _0631_
*852 _0632_
*853 _0633_
*854 _0634_
*855 _0635_
*856 _0636_
*857 _0637_
*858 _0638_
*859 _0639_
*860 _0640_
*861 _0641_
*862 _0642_
*863 _0643_
*864 _0644_
*865 _0645_
*866 _0646_
*867 _0647_
*868 _0648_
*869 _0649_
*870 _0650_
*871 _0651_
*872 _0652_
*873 _0653_
*874 _0654_
*875 _0655_
*876 _0656_
*877 _0657_
*878 _0658_
*879 _0659_
*880 _0660_
*881 _0661_
*882 _0662_
*883 _0663_
*884 _0664_
*885 _0665_
*886 _0666_
*887 _0667_
*888 _0668_
*889 _0669_
*890 _0670_
*891 _0671_
*892 _0672_
*893 _0673_
*894 _0674_
*895 _0675_
*896 _0676_
*897 _0677_
*898 _0678_
*899 _0679_
*900 _0680_
*901 _0681_
*902 _0682_
*903 _0683_
*904 _0684_
*905 _0685_
*906 _0686_
*907 _0687_
*908 _0688_
*909 _0689_
*910 _0690_
*911 _0691_
*912 _0692_
*913 _0693_
*914 _0694_
*915 _0695_
*916 _0696_
*917 _0697_
*918 _0698_
*919 _0699_
*920 _0700_
*921 _0701_
*922 _0702_
*923 _0703_
*924 _0704_
*925 _0705_
*926 _0706_
*927 _0707_
*928 _0708_
*929 _0709_
*930 _0710_
*931 _0711_
*932 _0712_
*933 _0713_
*934 _0714_
*935 _0715_
*936 _0716_
*937 _0717_
*938 _0718_
*939 _0719_
*940 _0720_
*941 _0721_
*942 _0722_
*943 _0723_
*944 _0724_
*945 _0725_
*946 _0726_
*947 _0727_
*948 _0728_
*949 _0729_
*950 _0730_
*951 _0731_
*952 _0732_
*953 _0733_
*954 _0734_
*955 _0735_
*956 _0736_
*957 _0737_
*958 _0738_
*959 _0739_
*960 _0740_
*961 _0741_
*962 _0742_
*963 _0743_
*964 _0744_
*965 _0745_
*966 _0746_
*967 _0747_
*968 _0748_
*969 _0749_
*970 _0750_
*971 _0751_
*972 _0752_
*973 _0753_
*974 _0754_
*975 _0755_
*976 _0756_
*977 _0757_
*978 _0758_
*979 _0759_
*980 _0760_
*981 _0761_
*982 _0762_
*983 _0763_
*984 _0764_
*985 _0765_
*986 _0766_
*987 _0767_
*988 _0768_
*989 _0769_
*990 _0770_
*991 _0771_
*992 _0772_
*993 _0773_
*994 _0774_
*995 _0775_
*996 _0776_
*997 _0777_
*998 _0778_
*999 _0779_
*1000 _0780_
*1001 _0781_
*1002 _0782_
*1003 _0783_
*1004 _0784_
*1005 _0785_
*1006 _0786_
*1007 _0787_
*1008 _0788_
*1009 _0789_
*1010 _0790_
*1011 _0791_
*1012 _0792_
*1013 _0793_
*1014 _0794_
*1015 _0795_
*1016 _0796_
*1017 _0797_
*1018 _0798_
*1019 _0799_
*1020 _0800_
*1021 _0801_
*1022 _0802_
*1023 _0803_
*1024 _0804_
*1025 _0805_
*1026 _0806_
*1027 _0807_
*1028 _0808_
*1029 _0809_
*1030 _0810_
*1031 _0811_
*1032 _0812_
*1033 _0813_
*1034 _0814_
*1035 _0815_
*1036 _0816_
*1037 _0817_
*1038 _0818_
*1039 _0819_
*1040 _0820_
*1041 _0821_
*1042 _0822_
*1043 _0823_
*1044 _0824_
*1045 _0825_
*1046 _0826_
*1047 _0827_
*1048 _0828_
*1049 _0829_
*1050 _0830_
*1051 _0831_
*1052 _0832_
*1053 _0833_
*1054 _0834_
*1055 _0835_
*1056 _0836_
*1057 _0837_
*1058 _0838_
*1059 _0839_
*1060 _0840_
*1061 _0841_
*1062 _0842_
*1063 _0843_
*1064 _0844_
*1065 _0845_
*1066 _0846_
*1067 _0847_
*1068 _0848_
*1069 _0849_
*1070 _0850_
*1071 _0851_
*1072 _0852_
*1073 _0853_
*1074 _0854_
*1075 _0855_
*1076 _0856_
*1077 _0857_
*1078 _0858_
*1079 _0859_
*1080 _0860_
*1081 _0861_
*1082 _0862_
*1083 _0863_
*1084 _0864_
*1085 _0865_
*1086 _0866_
*1087 _0867_
*1088 _0868_
*1089 _0869_
*1090 _0870_
*1091 _0871_
*1092 _0872_
*1093 _0873_
*1094 _0874_
*1095 _0875_
*1096 _0876_
*1097 _0877_
*1098 _0878_
*1099 _0879_
*1100 _0880_
*1101 _0881_
*1102 _0882_
*1103 _0883_
*1104 _0884_
*1105 _0885_
*1106 _0886_
*1107 _0887_
*1108 _0888_
*1109 _0889_
*1110 _0890_
*1111 _0891_
*1112 _0892_
*1113 _0893_
*1114 _0894_
*1115 _0895_
*1116 _0896_
*1117 _0897_
*1118 _0898_
*1119 _0899_
*1120 _0900_
*1121 _0901_
*1122 _0902_
*1123 _0903_
*1124 _0904_
*1125 _0905_
*1126 _0906_
*1127 _0907_
*1128 _0908_
*1129 _0909_
*1130 _0910_
*1131 _0911_
*1132 _0912_
*1133 _0913_
*1134 _0914_
*1135 _0915_
*1136 _0916_
*1137 _0917_
*1138 _0918_
*1139 _0919_
*1140 _0920_
*1141 _0921_
*1142 _0922_
*1143 _0923_
*1144 _0924_
*1145 _0925_
*1146 _0926_
*1147 _0927_
*1148 _0928_
*1149 _0929_
*1150 _0930_
*1151 _0931_
*1152 _0932_
*1153 _0933_
*1154 _0934_
*1155 _0935_
*1156 _0936_
*1157 _0937_
*1158 _0938_
*1159 _0939_
*1160 _0940_
*1161 _0941_
*1162 _0942_
*1163 _0943_
*1164 _0944_
*1165 _0945_
*1166 _0946_
*1167 _0947_
*1168 _0948_
*1169 _0949_
*1170 _0950_
*1171 _0951_
*1172 _0952_
*1173 _0953_
*1174 _0954_
*1175 _0955_
*1176 _0956_
*1177 _0957_
*1178 _0958_
*1179 _0959_
*1180 _0960_
*1181 _0961_
*1182 _0962_
*1183 _0963_
*1184 _0964_
*1185 _0965_
*1186 _0966_
*1187 _0967_
*1188 _0968_
*1189 _0969_
*1190 _0970_
*1191 _0971_
*1192 _0972_
*1193 _0973_
*1194 _0974_
*1195 _0975_
*1196 _0976_
*1197 _0977_
*1198 _0978_
*1199 _0979_
*1200 _0980_
*1201 _0981_
*1202 _0982_
*1203 _0983_
*1204 _0984_
*1205 _0985_
*1206 _0986_
*1207 _0987_
*1208 _0988_
*1209 _0989_
*1210 _0990_
*1211 _0991_
*1212 _0992_
*1213 _0993_
*1214 _0994_
*1215 _0995_
*1216 _0996_
*1217 _0997_
*1218 _0998_
*1219 _0999_
*1220 _1000_
*1221 _1001_
*1222 _1002_
*1223 _1003_
*1224 _1004_
*1225 _1005_
*1226 _1006_
*1227 _1007_
*1228 _1008_
*1229 _1009_
*1230 _1010_
*1231 _1011_
*1232 _1012_
*1233 _1013_
*1234 _1014_
*1235 _1015_
*1236 _1016_
*1237 _1017_
*1238 _1018_
*1239 _1019_
*1240 _1020_
*1241 _1021_
*1242 _1022_
*1243 _1023_
*1244 _1024_
*1245 _1025_
*1246 _1026_
*1247 _1027_
*1248 _1028_
*1249 _1029_
*1250 _1030_
*1251 _1031_
*1252 _1032_
*1253 _1033_
*1254 _1034_
*1255 _1035_
*1256 _1036_
*1257 _1037_
*1258 _1038_
*1259 _1039_
*1260 _1040_
*1261 _1041_
*1262 _1042_
*1263 _1043_
*1264 _1044_
*1265 _1045_
*1266 _1046_
*1267 _1047_
*1268 _1048_
*1269 _1049_
*1270 _1050_
*1271 _1051_
*1272 _1052_
*1273 _1053_
*1274 _1054_
*1275 _1055_
*1276 _1056_
*1277 _1057_
*1278 _1058_
*1279 _1059_
*1280 _1060_
*1281 _1061_
*1282 _1062_
*1283 _1063_
*1284 _1064_
*1285 _1065_
*1286 _1066_
*1287 _1067_
*1288 _1068_
*1289 _1069_
*1290 _1070_
*1291 _1071_
*1292 _1072_
*1293 _1073_
*1294 _1074_
*1295 _1075_
*1296 _1076_
*1297 _1077_
*1298 _1078_
*1299 _1079_
*1300 _1080_
*1301 _1081_
*1302 _1082_
*1303 _1083_
*1304 _1084_
*1305 _1085_
*1306 _1086_
*1307 _1087_
*1308 _1088_
*1309 _1089_
*1310 _1090_
*1311 _1091_
*1312 _1092_
*1313 _1093_
*1314 _1094_
*1315 _1095_
*1316 _1096_
*1317 _1097_
*1318 _1098_
*1319 _1099_
*1320 _1100_
*1321 _1101_
*1322 _1102_
*1323 _1103_
*1324 _1104_
*1325 _1105_
*1326 _1106_
*1327 _1107_
*1328 _1108_
*1329 _1109_
*1330 _1110_
*1331 _1111_
*1332 _1112_
*1333 _1113_
*1334 _1114_
*1335 _1115_
*1336 _1116_
*1337 _1117_
*1338 _1118_
*1339 _1119_
*1340 _1120_
*1341 _1121_
*1342 _1122_
*1343 _1123_
*1344 _1124_
*1345 _1125_
*1346 _1126_
*1347 _1127_
*1348 _1128_
*1349 _1129_
*1350 _1130_
*1351 _1131_
*1352 _1132_
*1353 _1133_
*1354 _1134_
*1355 _1135_
*1356 _1136_
*1357 _1137_
*1358 _1138_
*1359 _1139_
*1360 _1140_
*1361 _1141_
*1362 _1142_
*1363 _1143_
*1364 _1144_
*1365 _1145_
*1366 _1146_
*1367 _1147_
*1368 _1148_
*1369 _1149_
*1370 _1150_
*1371 _1151_
*1372 _1152_
*1373 _1153_
*1374 _1154_
*1375 _1155_
*1376 _1156_
*1377 _1157_
*1378 _1158_
*1379 _1159_
*1380 _1160_
*1381 _1161_
*1382 _1162_
*1383 _1163_
*1384 _1164_
*1385 _1165_
*1386 _1166_
*1387 _1167_
*1388 _1168_
*1389 _1169_
*1390 _1170_
*1391 _1171_
*1392 _1172_
*1393 _1173_
*1394 _1174_
*1395 _1175_
*1396 _1176_
*1397 _1177_
*1398 _1178_
*1399 _1179_
*1400 _1180_
*1401 _1181_
*1402 _1182_
*1403 _1183_
*1404 _1184_
*1405 _1185_
*1406 _1186_
*1407 _1187_
*1408 _1188_
*1409 _1189_
*1410 _1190_
*1411 _1191_
*1412 _1192_
*1413 _1193_
*1414 _1194_
*1415 _1195_
*1416 _1196_
*1417 _1197_
*1418 _1198_
*1419 _1199_
*1420 _1200_
*1421 _1201_
*1422 _1202_
*1423 _1203_
*1424 _1204_
*1425 _1205_
*1426 _1206_
*1427 _1207_
*1428 _1208_
*1429 _1209_
*1430 _1210_
*1431 _1211_
*1432 _1212_
*1433 _1213_
*1434 _1214_
*1435 _1215_
*1436 _1216_
*1437 _1217_
*1438 _1218_
*1439 _1219_
*1440 _1220_
*1441 _1221_
*1442 _1222_
*1443 _1223_
*1444 _1224_
*1445 _1225_
*1446 _1226_
*1447 _1227_
*1448 _1228_
*1449 _1229_
*1450 _1230_
*1451 _1231_
*1452 _1232_
*1453 _1233_
*1454 _1234_
*1455 _1235_
*1456 _1236_
*1457 _1237_
*1458 _1238_
*1459 _1239_
*1460 _1240_
*1461 _1241_
*1462 _1242_
*1463 _1243_
*1464 _1244_
*1465 _1245_
*1466 _1246_
*1467 _1247_
*1468 _1248_
*1469 _1249_
*1470 _1250_
*1471 _1251_
*1472 _1252_
*1473 _1253_
*1474 _1254_
*1475 _1255_
*1476 _1256_
*1477 _1257_
*1478 _1258_
*1479 _1259_
*1480 _1260_
*1481 _1261_
*1482 _1262_
*1483 _1263_
*1484 _1264_
*1485 _1265_
*1486 _1266_
*1487 _1267_
*1488 _1268_
*1489 _1269_
*1490 _1270_
*1491 _1271_
*1492 _1272_
*1493 _1273_
*1494 _1274_
*1495 _1275_
*1496 _1276_
*1497 _1277_
*1498 _1278_
*1499 _1279_
*1500 _1280_
*1501 _1281_
*1502 _1282_
*1503 _1283_
*1504 _1284_
*1505 _1285_
*1506 _1286_
*1507 _1287_
*1508 _1288_
*1509 _1289_
*1510 _1290_
*1511 _1291_
*1512 _1292_
*1513 _1293_
*1514 _1294_
*1515 _1295_
*1516 _1296_
*1517 _1297_
*1518 _1298_
*1519 _1299_
*1520 _1300_
*1521 _1301_
*1522 _1302_
*1523 _1303_
*1524 _1304_
*1525 _1305_
*1526 _1306_
*1527 _1307_
*1528 _1308_
*1529 _1309_
*1530 _1310_
*1531 _1311_
*1532 _1312_
*1533 _1313_
*1534 _1314_
*1535 _1315_
*1536 _1316_
*1537 _1317_
*1538 _1318_
*1539 _1319_
*1540 _1320_
*1541 _1321_
*1542 _1322_
*1543 _1323_
*1544 _1324_
*1545 _1325_
*1546 _1326_
*1547 _1327_
*1548 _1328_
*1549 _1329_
*1550 _1330_
*1551 _1331_
*1552 _1332_
*1553 _1333_
*1554 _1334_
*1555 _1335_
*1556 _1336_
*1557 _1337_
*1558 _1338_
*1559 _1339_
*1560 _1340_
*1561 _1341_
*1562 _1342_
*1563 _1343_
*1564 _1344_
*1565 _1345_
*1566 _1346_
*1567 _1347_
*1568 _1348_
*1569 _1349_
*1570 _1350_
*1571 _1351_
*1572 _1352_
*1573 _1353_
*1574 _1354_
*1575 _1355_
*1576 _1356_
*1577 _1357_
*1578 _1358_
*1579 _1359_
*1580 _1360_
*1581 _1361_
*1582 _1362_
*1583 _1363_
*1584 _1364_
*1585 _1365_
*1586 _1366_
*1587 _1367_
*1588 _1368_
*1589 _1369_
*1590 _1370_
*1591 _1371_
*1592 _1372_
*1593 _1373_
*1594 _1374_
*1595 _1375_
*1596 _1376_
*1597 _1377_
*1598 _1378_
*1599 _1379_
*1600 _1380_
*1601 _1381_
*1602 _1382_
*1603 _1383_
*1604 _1384_
*1605 _1385_
*1606 _1386_
*1607 _1387_
*1608 _1388_
*1609 _1389_
*1610 _1390_
*1611 _1391_
*1612 _1392_
*1613 _1393_
*1614 _1394_
*1615 _1395_
*1616 _1396_
*1617 _1397_
*1618 _1398_
*1619 _1399_
*1620 _1400_
*1621 _1401_
*1622 _1402_
*1623 _1403_
*1624 _1404_
*1625 _1405_
*1626 _1406_
*1627 _1407_
*1628 _1408_
*1629 _1409_
*1630 _1410_
*1631 _1411_
*1632 _1412_
*1633 _1413_
*1634 _1414_
*1635 _1415_
*1636 _1416_
*1637 _1417_
*1638 _1418_
*1639 _1419_
*1640 _1420_
*1641 _1421_
*1642 _1422_
*1643 _1423_
*1644 _1424_
*1645 _1425_
*1646 _1426_
*1647 _1427_
*1648 _1428_
*1649 _1429_
*1650 _1430_
*1651 _1431_
*1652 _1432_
*1653 _1433_
*1654 _1434_
*1655 _1435_
*1656 _1436_
*1657 _1437_
*1658 _1438_
*1659 _1439_
*1660 _1440_
*1661 _1441_
*1662 _1442_
*1663 _1443_
*1664 _1444_
*1665 _1445_
*1666 _1446_
*1667 _1447_
*1668 _1448_
*1669 _1449_
*1670 _1450_
*1671 _1451_
*1672 _1452_
*1673 _1453_
*1674 _1454_
*1675 _1455_
*1676 _1456_
*1677 _1457_
*1678 _1458_
*1679 _1459_
*1680 _1460_
*1681 _1461_
*1682 _1462_
*1683 _1463_
*1684 _1464_
*1685 _1465_
*1686 _1466_
*1687 _1467_
*1688 _1468_
*1689 _1469_
*1690 _1470_
*1691 _1471_
*1692 _1472_
*1693 _1473_
*1694 _1474_
*1695 _1475_
*1696 _1476_
*1697 _1477_
*1698 _1478_
*1699 _1479_
*1700 _1480_
*1701 _1481_
*1702 _1482_
*1703 _1483_
*1704 _1484_
*1705 _1485_
*1706 _1486_
*1707 _1487_
*1708 _1488_
*1709 _1489_
*1710 _1490_
*1711 _1491_
*1712 _1492_
*1713 _1493_
*1714 _1494_
*1715 _1495_
*1716 _1496_
*1717 _1497_
*1718 _1498_
*1719 _1499_
*1720 _1500_
*1721 _1501_
*1722 _1502_
*1723 _1503_
*1724 _1504_
*1725 _1505_
*1726 _1506_
*1727 _1507_
*1728 _1508_
*1729 _1509_
*1730 _1510_
*1731 _1511_
*1732 _1512_
*1733 _1513_
*1734 _1514_
*1735 _1515_
*1736 _1516_
*1737 _1517_
*1738 _1518_
*1739 _1519_
*1740 _1520_
*1741 _1521_
*1742 _1522_
*1743 _1523_
*1744 _1524_
*1745 _1525_
*1746 _1526_
*1747 _1527_
*1748 _1528_
*1749 _1529_
*1750 _1530_
*1751 _1531_
*1752 _1532_
*1753 _1533_
*1754 _1534_
*1755 _1535_
*1756 _1536_
*1757 _1537_
*1758 _1538_
*1759 _1539_
*1760 _1540_
*1761 _1541_
*1762 _1542_
*1763 _1543_
*1764 _1544_
*1765 _1545_
*1766 _1546_
*1767 _1547_
*1768 _1548_
*1769 _1549_
*1770 _1550_
*1771 _1551_
*1772 _1552_
*1773 _1553_
*1774 _1554_
*1775 _1555_
*1776 _1556_
*1777 _1557_
*1778 _1558_
*1779 _1559_
*1780 _1560_
*1781 _1561_
*1782 _1562_
*1783 _1563_
*1784 _1564_
*1785 _1565_
*1786 _1566_
*1787 _1567_
*1788 _1568_
*1789 _1569_
*1790 _1570_
*1791 _1571_
*1792 _1572_
*1793 _1573_
*1794 _1574_
*1795 _1575_
*1796 _1576_
*1797 _1577_
*1798 _1578_
*1799 _1579_
*1800 _1580_
*1801 _1581_
*1802 _1582_
*1803 _1583_
*1804 _1584_
*1805 _1585_
*1806 _1586_
*1807 _1587_
*1808 _1588_
*1809 _1589_
*1810 _1590_
*1811 _1591_
*1812 _1592_
*1813 _1593_
*1814 _1594_
*1815 _1595_
*1816 _1596_
*1817 _1597_
*1818 _1598_
*1819 _1599_
*1820 _1600_
*1821 _1601_
*1822 _1602_
*1823 _1603_
*1824 _1604_
*1825 _1605_
*1826 _1606_
*1827 _1607_
*1828 _1608_
*1829 _1609_
*1830 _1610_
*1831 _1611_
*1832 _1612_
*1833 _1613_
*1834 _1614_
*1835 _1615_
*1836 _1616_
*1837 _1617_
*1838 _1618_
*1839 _1619_
*1840 _1620_
*1841 _1621_
*1842 _1622_
*1843 _1623_
*1844 _1624_
*1845 _1625_
*1846 _1626_
*1847 _1627_
*1848 _1628_
*1849 _1629_
*1850 _1630_
*1851 _1631_
*1852 _1632_
*1853 _1633_
*1854 _1634_
*1855 _1635_
*1856 _1636_
*1857 _1637_
*1858 _1638_
*1859 _1639_
*1860 _1640_
*1861 _1641_
*1862 _1642_
*1863 _1643_
*1864 _1644_
*1865 _1645_
*1866 _1646_
*1867 _1647_
*1868 _1648_
*1869 _1649_
*1870 _1650_
*1871 _1651_
*1872 _1652_
*1873 _1653_
*1874 _1654_
*1875 _1655_
*1876 _1656_
*1877 _1657_
*1878 _1658_
*1879 _1659_
*1880 _1660_
*1881 _1661_
*1882 _1662_
*1883 _1663_
*1884 _1664_
*1885 _1665_
*1886 _1666_
*1887 _1667_
*1888 _1668_
*1889 _1669_
*1890 _1670_
*1891 _1671_
*1892 _1672_
*1893 _1673_
*1894 _1674_
*1895 _1675_
*1896 _1676_
*1897 _1677_
*1898 _1678_
*1899 _1679_
*1900 _1680_
*1901 _1681_
*1902 _1682_
*1903 _1683_
*1904 _1684_
*1905 _1685_
*1906 _1686_
*1907 _1687_
*1908 _1688_
*1909 _1689_
*1910 _1690_
*1911 _1691_
*1912 _1692_
*1913 _1693_
*1914 _1694_
*1915 _1695_
*1916 _1696_
*1917 _1697_
*1918 _1698_
*1919 _1699_
*1920 _1700_
*1921 _1701_
*1922 _1702_
*1923 _1703_
*1924 _1704_
*1925 _1705_
*1926 _1706_
*1927 _1707_
*1928 _1708_
*1929 _1709_
*1930 _1710_
*1931 _1711_
*1932 _1712_
*1933 _1713_
*1934 _1714_
*1935 _1715_
*1936 _1716_
*1937 _1717_
*1938 _1718_
*1939 _1719_
*1940 _1720_
*1941 _1721_
*1942 _1722_
*1943 _1723_
*1944 _1724_
*1945 _1725_
*1946 _1726_
*1947 _1727_
*1948 _1728_
*1949 _1729_
*1950 _1730_
*1951 _1731_
*1952 _1732_
*1953 _1733_
*1954 _1734_
*1955 _1735_
*1956 _1736_
*1957 _1737_
*1958 _1738_
*1959 _1739_
*1960 _1740_
*1961 _1741_
*1962 _1742_
*1963 _1743_
*1964 _1744_
*1965 _1745_
*1966 _1746_
*1967 _1747_
*1968 _1748_
*1969 _1749_
*1970 _1750_
*1971 _1751_
*1972 _1752_
*1973 _1753_
*1974 _1754_
*1975 _1755_
*1976 _1756_
*1977 _1757_
*1978 _1758_
*1979 _1759_
*1980 _1760_
*1981 _1761_
*1982 _1762_
*1983 _1763_
*1984 _1764_
*1985 _1765_
*1986 _1766_
*1987 _1767_
*1988 _1768_
*1989 _1769_
*1990 _1770_
*1991 _1771_
*1992 _1772_
*1993 _1773_
*1994 _1774_
*1995 _1775_
*1996 _1776_
*1997 _1777_
*1998 _1778_
*1999 _1779_
*2000 _1780_
*2001 _1781_
*2002 _1782_
*2003 _1783_
*2004 _1784_
*2005 _1785_
*2006 _1786_
*2007 _1787_
*2008 _1788_
*2009 _1789_
*2010 _1790_
*2011 _1791_
*2012 _1792_
*2013 _1793_
*2014 _1794_
*2015 _1795_
*2016 _1796_
*2017 _1797_
*2018 _1798_
*2019 _1799_
*2020 _1800_
*2021 _1801_
*2022 _1802_
*2023 _1803_
*2024 _1804_
*2025 _1805_
*2026 _1806_
*2027 _1807_
*2028 _1808_
*2029 _1809_
*2030 _1810_
*2031 _1811_
*2032 _1812_
*2033 _1813_
*2034 _1814_
*2035 _1815_
*2036 _1816_
*2037 _1817_
*2038 _1818_
*2039 _1819_
*2040 _1820_
*2041 _1821_
*2042 _1822_
*2043 _1823_
*2044 _1824_
*2045 _1825_
*2046 _1826_
*2047 _1827_
*2048 _1828_
*2049 _1829_
*2050 _1830_
*2051 _1831_
*2052 _1832_
*2053 _1833_
*2054 _1834_
*2055 _1835_
*2056 _1836_
*2057 _1837_
*2058 _1838_
*2059 _1839_
*2060 _1840_
*2061 _1841_
*2062 _1842_
*2063 _1843_
*2064 _1844_
*2065 _1845_
*2066 _1846_
*2067 _1847_
*2068 _1848_
*2069 _1849_
*2070 _1850_
*2071 _1851_
*2072 _1852_
*2073 _1853_
*2074 _1854_
*2075 _1855_
*2076 _1856_
*2077 _1857_
*2078 _1858_
*2079 _1859_
*2080 _1860_
*2081 _1861_
*2082 _1862_
*2083 _1863_
*2084 _1864_
*2085 _1865_
*2086 _1866_
*2087 _1867_
*2088 _1868_
*2089 _1869_
*2090 _1870_
*2091 _1871_
*2092 _1872_
*2093 _1873_
*2094 _1874_
*2095 _1875_
*2096 _1876_
*2097 _1877_
*2098 _1878_
*2099 _1879_
*2100 _1880_
*2101 _1881_
*2102 _1882_
*2103 _1883_
*2104 _1884_
*2105 _1885_
*2106 _1886_
*2107 _1887_
*2108 _1888_
*2109 _1889_
*2110 _1890_
*2111 _1891_
*2112 _1892_
*2113 _1893_
*2114 _1894_
*2115 _1895_
*2116 _1896_
*2117 _1897_
*2118 _1898_
*2119 _1899_
*2120 _1900_
*2121 _1901_
*2122 _1902_
*2123 _1903_
*2124 _1904_
*2125 _1905_
*2126 _1906_
*2127 _1907_
*2128 _1908_
*2129 _1909_
*2130 _1910_
*2131 _1911_
*2132 _1912_
*2133 _1913_
*2134 _1914_
*2135 _1915_
*2136 _1916_
*2137 _1917_
*2138 _1918_
*2139 _1919_
*2140 _1920_
*2141 _1921_
*2142 _1922_
*2143 _1923_
*2144 _1924_
*2145 _1925_
*2146 _1926_
*2147 _1927_
*2148 _1928_
*2149 _1929_
*2150 _1930_
*2151 _1931_
*2152 _1932_
*2153 _1933_
*2154 _1934_
*2155 _1935_
*2156 _1936_
*2157 _1937_
*2158 _1938_
*2159 _1939_
*2160 _1940_
*2161 _1941_
*2162 _1942_
*2163 _1943_
*2164 _1944_
*2165 _1945_
*2166 _1946_
*2167 _1947_
*2168 _1948_
*2169 _1949_
*2170 _1950_
*2171 _1951_
*2172 _1952_
*2173 _1953_
*2174 _1954_
*2175 _1955_
*2176 _1956_
*2177 _1957_
*2178 _1958_
*2179 _1959_
*2180 _1960_
*2181 _1961_
*2182 _1962_
*2183 _1963_
*2184 _1964_
*2185 _1965_
*2186 _1966_
*2187 _1967_
*2188 _1968_
*2189 _1969_
*2190 _1970_
*2191 _1971_
*2192 _1972_
*2193 _1973_
*2194 _1974_
*2195 _1975_
*2196 _1976_
*2197 _1977_
*2198 _1978_
*2199 _1979_
*2200 _1980_
*2201 _1981_
*2202 _1982_
*2203 _1983_
*2204 _1984_
*2205 _1985_
*2206 _1986_
*2207 _1987_
*2208 _1988_
*2209 _1989_
*2210 _1990_
*2211 _1991_
*2212 _1992_
*2213 _1993_
*2214 _1994_
*2215 _1995_
*2216 _1996_
*2217 _1997_
*2218 _1998_
*2219 _1999_
*2220 _2000_
*2221 _2001_
*2222 _2002_
*2223 _2003_
*2224 _2004_
*2225 _2005_
*2226 _2006_
*2227 _2007_
*2228 _2008_
*2229 _2009_
*2230 _2010_
*2231 _2011_
*2232 _2012_
*2233 _2013_
*2234 _2014_
*2235 _2015_
*2236 _2016_
*2237 _2017_
*2238 _2018_
*2239 _2019_
*2240 _2020_
*2241 _2021_
*2242 _2022_
*2243 _2023_
*2244 _2024_
*2245 _2025_
*2246 _2026_
*2247 _2027_
*2248 _2028_
*2249 _2029_
*2250 _2030_
*2251 _2031_
*2252 _2032_
*2253 _2033_
*2254 _2034_
*2255 _2035_
*2256 _2036_
*2257 _2037_
*2258 _2038_
*2259 _2039_
*2260 _2040_
*2261 _2041_
*2262 _2042_
*2263 _2043_
*2264 _2044_
*2265 _2045_
*2266 _2046_
*2267 _2047_
*2268 _2048_
*2269 _2049_
*2270 _2050_
*2271 _2051_
*2272 _2052_
*2273 _2053_
*2274 _2054_
*2275 _2055_
*2276 _2056_
*2277 _2057_
*2278 _2058_
*2279 _2059_
*2280 _2060_
*2281 _2061_