*SPEF "ieee 1481-1999"
*DESIGN "interconnect_outer"
*DATE "11:11:11 Fri 11 11, 1111"
*VENDOR "OpenRCX"
*PROGRAM "Parallel Extraction"
*VERSION "1.0"
*DESIGN_FLOW "NAME_SCOPE LOCAL" "PIN_CAP NONE"
*DIVIDER /
*DELIMITER :
*BUS_DELIMITER []
*T_UNIT 1 NS
*C_UNIT 1 PF
*R_UNIT 1 OHM
*L_UNIT 1 HENRY

*NAME_MAP
*1 inner_clock
*2 inner_disable
*3 inner_embed_mode
*4 inner_ext_irq
*5 inner_reset
*6 inner_wb_4_burst
*7 inner_wb_8_burst
*8 inner_wb_ack
*9 inner_wb_adr[0]
*10 inner_wb_adr[10]
*11 inner_wb_adr[11]
*12 inner_wb_adr[12]
*13 inner_wb_adr[13]
*14 inner_wb_adr[14]
*15 inner_wb_adr[15]
*16 inner_wb_adr[16]
*17 inner_wb_adr[17]
*18 inner_wb_adr[18]
*19 inner_wb_adr[19]
*20 inner_wb_adr[1]
*21 inner_wb_adr[20]
*22 inner_wb_adr[21]
*23 inner_wb_adr[22]
*24 inner_wb_adr[23]
*25 inner_wb_adr[2]
*26 inner_wb_adr[3]
*27 inner_wb_adr[4]
*28 inner_wb_adr[5]
*29 inner_wb_adr[6]
*30 inner_wb_adr[7]
*31 inner_wb_adr[8]
*32 inner_wb_adr[9]
*33 inner_wb_cyc
*34 inner_wb_err
*35 inner_wb_i_dat[0]
*36 inner_wb_i_dat[10]
*37 inner_wb_i_dat[11]
*38 inner_wb_i_dat[12]
*39 inner_wb_i_dat[13]
*40 inner_wb_i_dat[14]
*41 inner_wb_i_dat[15]
*42 inner_wb_i_dat[1]
*43 inner_wb_i_dat[2]
*44 inner_wb_i_dat[3]
*45 inner_wb_i_dat[4]
*46 inner_wb_i_dat[5]
*47 inner_wb_i_dat[6]
*48 inner_wb_i_dat[7]
*49 inner_wb_i_dat[8]
*50 inner_wb_i_dat[9]
*51 inner_wb_o_dat[0]
*52 inner_wb_o_dat[10]
*53 inner_wb_o_dat[11]
*54 inner_wb_o_dat[12]
*55 inner_wb_o_dat[13]
*56 inner_wb_o_dat[14]
*57 inner_wb_o_dat[15]
*58 inner_wb_o_dat[1]
*59 inner_wb_o_dat[2]
*60 inner_wb_o_dat[3]
*61 inner_wb_o_dat[4]
*62 inner_wb_o_dat[5]
*63 inner_wb_o_dat[6]
*64 inner_wb_o_dat[7]
*65 inner_wb_o_dat[8]
*66 inner_wb_o_dat[9]
*67 inner_wb_sel[0]
*68 inner_wb_sel[1]
*69 inner_wb_stb
*70 inner_wb_we
*71 iram_addr[0]
*72 iram_addr[1]
*73 iram_addr[2]
*74 iram_addr[3]
*75 iram_addr[4]
*76 iram_addr[5]
*77 iram_addr[6]
*78 iram_clk
*79 iram_i_data[0]
*80 iram_i_data[10]
*81 iram_i_data[11]
*82 iram_i_data[12]
*83 iram_i_data[13]
*84 iram_i_data[14]
*85 iram_i_data[15]
*86 iram_i_data[1]
*87 iram_i_data[2]
*88 iram_i_data[3]
*89 iram_i_data[4]
*90 iram_i_data[5]
*91 iram_i_data[6]
*92 iram_i_data[7]
*93 iram_i_data[8]
*94 iram_i_data[9]
*95 iram_o_data[0]
*96 iram_o_data[10]
*97 iram_o_data[11]
*98 iram_o_data[12]
*99 iram_o_data[13]
*100 iram_o_data[14]
*101 iram_o_data[15]
*102 iram_o_data[1]
*103 iram_o_data[2]
*104 iram_o_data[3]
*105 iram_o_data[4]
*106 iram_o_data[5]
*107 iram_o_data[6]
*108 iram_o_data[7]
*109 iram_o_data[8]
*110 iram_o_data[9]
*111 iram_we
*112 net205
*113 net206
*114 net207
*115 la_data_in[0]
*116 la_data_in[100]
*117 la_data_in[101]
*118 la_data_in[102]
*119 la_data_in[103]
*120 la_data_in[104]
*121 la_data_in[105]
*122 la_data_in[106]
*123 la_data_in[107]
*124 la_data_in[108]
*125 la_data_in[109]
*126 la_data_in[10]
*127 la_data_in[110]
*128 la_data_in[111]
*129 la_data_in[112]
*130 la_data_in[113]
*131 la_data_in[114]
*132 la_data_in[115]
*133 la_data_in[116]
*134 la_data_in[117]
*135 la_data_in[118]
*136 la_data_in[119]
*137 la_data_in[11]
*138 la_data_in[120]
*139 la_data_in[121]
*140 la_data_in[122]
*141 la_data_in[123]
*142 la_data_in[124]
*143 la_data_in[125]
*144 la_data_in[126]
*145 la_data_in[127]
*146 la_data_in[12]
*147 la_data_in[13]
*148 la_data_in[14]
*149 la_data_in[15]
*150 la_data_in[16]
*151 la_data_in[17]
*152 la_data_in[18]
*153 la_data_in[19]
*154 la_data_in[1]
*155 la_data_in[20]
*156 la_data_in[21]
*157 la_data_in[22]
*158 la_data_in[23]
*159 la_data_in[24]
*160 la_data_in[25]
*161 la_data_in[26]
*162 la_data_in[27]
*163 la_data_in[28]
*164 la_data_in[29]
*165 la_data_in[2]
*166 la_data_in[30]
*167 la_data_in[31]
*168 la_data_in[32]
*169 la_data_in[33]
*170 la_data_in[34]
*171 la_data_in[35]
*172 la_data_in[36]
*173 la_data_in[37]
*174 la_data_in[38]
*175 la_data_in[39]
*176 la_data_in[3]
*177 la_data_in[40]
*178 la_data_in[41]
*179 la_data_in[42]
*180 la_data_in[43]
*181 la_data_in[44]
*182 la_data_in[45]
*183 la_data_in[46]
*184 la_data_in[47]
*185 la_data_in[48]
*186 la_data_in[49]
*187 la_data_in[4]
*188 la_data_in[50]
*189 la_data_in[51]
*190 la_data_in[52]
*191 la_data_in[53]
*192 la_data_in[54]
*193 la_data_in[55]
*194 la_data_in[56]
*195 la_data_in[57]
*196 la_data_in[58]
*197 la_data_in[59]
*198 la_data_in[5]
*199 la_data_in[60]
*200 la_data_in[61]
*201 la_data_in[62]
*202 la_data_in[63]
*203 la_data_in[64]
*204 la_data_in[65]
*205 la_data_in[66]
*206 la_data_in[67]
*207 la_data_in[68]
*208 la_data_in[69]
*209 la_data_in[6]
*210 la_data_in[70]
*211 la_data_in[71]
*212 la_data_in[72]
*213 la_data_in[73]
*214 la_data_in[74]
*215 la_data_in[75]
*216 la_data_in[76]
*217 la_data_in[77]
*218 la_data_in[78]
*219 la_data_in[79]
*220 la_data_in[7]
*221 la_data_in[80]
*222 la_data_in[81]
*223 la_data_in[82]
*224 la_data_in[83]
*225 la_data_in[84]
*226 la_data_in[85]
*227 la_data_in[86]
*228 la_data_in[87]
*229 la_data_in[88]
*230 la_data_in[89]
*231 la_data_in[8]
*232 la_data_in[90]
*233 la_data_in[91]
*234 la_data_in[92]
*235 la_data_in[93]
*236 la_data_in[94]
*237 la_data_in[95]
*238 la_data_in[96]
*239 la_data_in[97]
*240 la_data_in[98]
*241 la_data_in[99]
*242 la_data_in[9]
*243 net208
*244 net308
*245 net309
*246 net310
*247 net311
*248 net312
*249 net313
*250 net314
*251 net315
*252 net316
*253 net317
*254 net218
*255 net318
*256 net319
*257 net320
*258 net321
*259 net322
*260 net323
*261 net324
*262 net325
*263 net326
*264 net327
*265 net219
*266 net328
*267 net329
*268 net330
*269 net331
*270 net332
*271 net333
*272 net334
*273 net335
*274 net220
*275 net221
*276 net222
*277 net223
*278 net224
*279 net225
*280 net226
*281 net227
*282 net209
*283 net228
*284 net229
*285 net230
*286 net231
*287 net232
*288 net233
*289 net234
*290 net235
*291 net236
*292 net237
*293 net210
*294 net238
*295 net239
*296 net240
*297 net241
*298 net242
*299 net243
*300 net244
*301 net245
*302 net246
*303 net247
*304 net211
*305 net248
*306 net249
*307 net250
*308 net251
*309 net252
*310 net253
*311 net254
*312 net255
*313 net256
*314 net257
*315 net212
*316 net258
*317 net259
*318 net260
*319 net261
*320 net262
*321 net263
*322 net264
*323 net265
*324 net266
*325 net267
*326 net213
*327 net268
*328 net269
*329 net270
*330 net271
*331 net272
*332 net273
*333 net274
*334 net275
*335 net276
*336 net277
*337 net214
*338 net278
*339 net279
*340 net280
*341 net281
*342 net282
*343 net283
*344 net284
*345 net285
*346 net286
*347 net287
*348 net215
*349 net288
*350 net289
*351 net290
*352 net291
*353 net292
*354 net293
*355 net294
*356 net295
*357 net296
*358 net297
*359 net216
*360 net298
*361 net299
*362 net300
*363 net301
*364 net302
*365 net303
*366 net304
*367 net305
*368 net306
*369 net307
*370 net217
*371 la_oenb[0]
*372 la_oenb[100]
*373 la_oenb[101]
*374 la_oenb[102]
*375 la_oenb[103]
*376 la_oenb[104]
*377 la_oenb[105]
*378 la_oenb[106]
*379 la_oenb[107]
*380 la_oenb[108]
*381 la_oenb[109]
*382 la_oenb[10]
*383 la_oenb[110]
*384 la_oenb[111]
*385 la_oenb[112]
*386 la_oenb[113]
*387 la_oenb[114]
*388 la_oenb[115]
*389 la_oenb[116]
*390 la_oenb[117]
*391 la_oenb[118]
*392 la_oenb[119]
*393 la_oenb[11]
*394 la_oenb[120]
*395 la_oenb[121]
*396 la_oenb[122]
*397 la_oenb[123]
*398 la_oenb[124]
*399 la_oenb[125]
*400 la_oenb[126]
*401 la_oenb[127]
*402 la_oenb[12]
*403 la_oenb[13]
*404 la_oenb[14]
*405 la_oenb[15]
*406 la_oenb[16]
*407 la_oenb[17]
*408 la_oenb[18]
*409 la_oenb[19]
*410 la_oenb[1]
*411 la_oenb[20]
*412 la_oenb[21]
*413 la_oenb[22]
*414 la_oenb[23]
*415 la_oenb[24]
*416 la_oenb[25]
*417 la_oenb[26]
*418 la_oenb[27]
*419 la_oenb[28]
*420 la_oenb[29]
*421 la_oenb[2]
*422 la_oenb[30]
*423 la_oenb[31]
*424 la_oenb[32]
*425 la_oenb[33]
*426 la_oenb[34]
*427 la_oenb[35]
*428 la_oenb[36]
*429 la_oenb[37]
*430 la_oenb[38]
*431 la_oenb[39]
*432 la_oenb[3]
*433 la_oenb[40]
*434 la_oenb[41]
*435 la_oenb[42]
*436 la_oenb[43]
*437 la_oenb[44]
*438 la_oenb[45]
*439 la_oenb[46]
*440 la_oenb[47]
*441 la_oenb[48]
*442 la_oenb[49]
*443 la_oenb[4]
*444 la_oenb[50]
*445 la_oenb[51]
*446 la_oenb[52]
*447 la_oenb[53]
*448 la_oenb[54]
*449 la_oenb[55]
*450 la_oenb[56]
*451 la_oenb[57]
*452 la_oenb[58]
*453 la_oenb[59]
*454 la_oenb[5]
*455 la_oenb[60]
*456 la_oenb[61]
*457 la_oenb[62]
*458 la_oenb[63]
*459 la_oenb[64]
*460 la_oenb[65]
*461 la_oenb[66]
*462 la_oenb[67]
*463 la_oenb[68]
*464 la_oenb[69]
*465 la_oenb[6]
*466 la_oenb[70]
*467 la_oenb[71]
*468 la_oenb[72]
*469 la_oenb[73]
*470 la_oenb[74]
*471 la_oenb[75]
*472 la_oenb[76]
*473 la_oenb[77]
*474 la_oenb[78]
*475 la_oenb[79]
*476 la_oenb[7]
*477 la_oenb[80]
*478 la_oenb[81]
*479 la_oenb[82]
*480 la_oenb[83]
*481 la_oenb[84]
*482 la_oenb[85]
*483 la_oenb[86]
*484 la_oenb[87]
*485 la_oenb[88]
*486 la_oenb[89]
*487 la_oenb[8]
*488 la_oenb[90]
*489 la_oenb[91]
*490 la_oenb[92]
*491 la_oenb[93]
*492 la_oenb[94]
*493 la_oenb[95]
*494 la_oenb[96]
*495 la_oenb[97]
*496 la_oenb[98]
*497 la_oenb[99]
*498 la_oenb[9]
*499 m_io_in[0]
*500 m_io_in[10]
*501 m_io_in[11]
*502 m_io_in[12]
*503 m_io_in[13]
*504 m_io_in[14]
*505 m_io_in[15]
*506 m_io_in[16]
*507 m_io_in[17]
*508 m_io_in[18]
*509 m_io_in[19]
*510 m_io_in[1]
*511 m_io_in[20]
*512 m_io_in[21]
*513 m_io_in[22]
*514 m_io_in[23]
*515 m_io_in[24]
*516 m_io_in[25]
*517 m_io_in[26]
*518 m_io_in[27]
*519 m_io_in[28]
*520 m_io_in[29]
*521 m_io_in[2]
*522 m_io_in[30]
*523 m_io_in[31]
*524 m_io_in[32]
*525 m_io_in[33]
*526 m_io_in[34]
*527 m_io_in[35]
*528 m_io_in[36]
*529 m_io_in[37]
*530 m_io_in[3]
*531 m_io_in[4]
*532 m_io_in[5]
*533 m_io_in[6]
*534 m_io_in[7]
*535 m_io_in[8]
*536 m_io_in[9]
*537 m_io_oeb[0]
*538 m_io_oeb[10]
*539 m_io_oeb[11]
*540 m_io_oeb[12]
*541 m_io_oeb[13]
*542 m_io_oeb[14]
*543 m_io_oeb[15]
*544 m_io_oeb[16]
*545 m_io_oeb[17]
*546 m_io_oeb[18]
*547 m_io_oeb[19]
*548 m_io_oeb[1]
*549 m_io_oeb[20]
*550 m_io_oeb[21]
*551 m_io_oeb[22]
*552 m_io_oeb[23]
*553 m_io_oeb[24]
*554 m_io_oeb[25]
*555 net383
*556 net384
*557 net338
*558 net339
*559 m_io_oeb[2]
*560 net385
*561 net386
*562 net387
*563 net388
*564 net389
*565 net390
*566 net340
*567 net341
*568 m_io_oeb[3]
*569 m_io_oeb[4]
*570 m_io_oeb[5]
*571 m_io_oeb[6]
*572 m_io_oeb[7]
*573 net336
*574 net337
*575 m_io_out[0]
*576 m_io_out[10]
*577 m_io_out[11]
*578 m_io_out[12]
*579 m_io_out[13]
*580 m_io_out[14]
*581 m_io_out[15]
*582 m_io_out[16]
*583 m_io_out[17]
*584 m_io_out[18]
*585 m_io_out[19]
*586 m_io_out[1]
*587 m_io_out[20]
*588 m_io_out[21]
*589 m_io_out[22]
*590 m_io_out[23]
*591 m_io_out[24]
*592 m_io_out[25]
*593 net342
*594 net343
*595 net391
*596 m_io_out[29]
*597 m_io_out[2]
*598 net344
*599 net345
*600 net346
*601 net347
*602 net348
*603 net349
*604 m_io_out[36]
*605 m_io_out[37]
*606 m_io_out[3]
*607 m_io_out[4]
*608 m_io_out[5]
*609 m_io_out[6]
*610 m_io_out[7]
*611 m_io_out[8]
*612 m_io_out[9]
*613 net350
*614 mgt_wb_adr_i[0]
*615 mgt_wb_adr_i[10]
*616 mgt_wb_adr_i[11]
*617 mgt_wb_adr_i[12]
*618 mgt_wb_adr_i[13]
*619 mgt_wb_adr_i[14]
*620 mgt_wb_adr_i[15]
*621 mgt_wb_adr_i[16]
*622 mgt_wb_adr_i[17]
*623 mgt_wb_adr_i[18]
*624 mgt_wb_adr_i[19]
*625 mgt_wb_adr_i[1]
*626 mgt_wb_adr_i[20]
*627 mgt_wb_adr_i[21]
*628 mgt_wb_adr_i[22]
*629 mgt_wb_adr_i[23]
*630 mgt_wb_adr_i[24]
*631 mgt_wb_adr_i[25]
*632 mgt_wb_adr_i[26]
*633 mgt_wb_adr_i[27]
*634 mgt_wb_adr_i[28]
*635 mgt_wb_adr_i[29]
*636 mgt_wb_adr_i[2]
*637 mgt_wb_adr_i[30]
*638 mgt_wb_adr_i[31]
*639 mgt_wb_adr_i[3]
*640 mgt_wb_adr_i[4]
*641 mgt_wb_adr_i[5]
*642 mgt_wb_adr_i[6]
*643 mgt_wb_adr_i[7]
*644 mgt_wb_adr_i[8]
*645 mgt_wb_adr_i[9]
*646 mgt_wb_clk_i
*647 mgt_wb_cyc_i
*648 mgt_wb_dat_i[0]
*649 mgt_wb_dat_i[10]
*650 mgt_wb_dat_i[11]
*651 mgt_wb_dat_i[12]
*652 mgt_wb_dat_i[13]
*653 mgt_wb_dat_i[14]
*654 mgt_wb_dat_i[15]
*655 mgt_wb_dat_i[16]
*656 mgt_wb_dat_i[17]
*657 mgt_wb_dat_i[18]
*658 mgt_wb_dat_i[19]
*659 mgt_wb_dat_i[1]
*660 mgt_wb_dat_i[20]
*661 mgt_wb_dat_i[21]
*662 mgt_wb_dat_i[22]
*663 mgt_wb_dat_i[23]
*664 mgt_wb_dat_i[24]
*665 mgt_wb_dat_i[25]
*666 mgt_wb_dat_i[26]
*667 mgt_wb_dat_i[27]
*668 mgt_wb_dat_i[28]
*669 mgt_wb_dat_i[29]
*670 mgt_wb_dat_i[2]
*671 mgt_wb_dat_i[30]
*672 mgt_wb_dat_i[31]
*673 mgt_wb_dat_i[3]
*674 mgt_wb_dat_i[4]
*675 mgt_wb_dat_i[5]
*676 mgt_wb_dat_i[6]
*677 mgt_wb_dat_i[7]
*678 mgt_wb_dat_i[8]
*679 mgt_wb_dat_i[9]
*680 net351
*681 net361
*682 net362
*683 net363
*684 net364
*685 net365
*686 net366
*687 net367
*688 net368
*689 net369
*690 net370
*691 net352
*692 net371
*693 net372
*694 net373
*695 net374
*696 net375
*697 net376
*698 net377
*699 net378
*700 net379
*701 net380
*702 net353
*703 net381
*704 net382
*705 net354
*706 net355
*707 net356
*708 net357
*709 net358
*710 net359
*711 net360
*712 mgt_wb_rst_i
*713 mgt_wb_sel_i[0]
*714 mgt_wb_sel_i[1]
*715 mgt_wb_sel_i[2]
*716 mgt_wb_sel_i[3]
*717 mgt_wb_stb_i
*718 mgt_wb_we_i
*719 user_clock2
*722 _0000_
*723 _0001_
*724 _0002_
*725 _0003_
*726 _0004_
*727 _0005_
*728 _0006_
*729 _0007_
*730 _0008_
*731 _0009_
*732 _0010_
*733 _0011_
*734 _0012_
*735 _0013_
*736 _0014_
*737 _0015_
*738 _0016_
*739 _0017_
*740 _0018_
*741 _0019_
*742 _0020_
*743 _0021_
*744 _0022_
*745 _0023_
*746 _0024_
*747 _0025_
*748 _0026_
*749 _0027_
*750 _0028_
*751 _0029_
*752 _0030_
*753 _0031_
*754 _0032_
*755 _0033_
*756 _0034_
*757 _0035_
*758 _0036_
*759 _0037_
*760 _0038_
*761 _0039_
*762 _0040_
*763 _0041_
*764 _0042_
*765 _0043_
*766 _0044_
*767 _0045_
*768 _0046_
*769 _0047_
*770 _0048_
*771 _0049_
*772 _0050_
*773 _0051_
*774 _0052_
*775 _0053_
*776 _0054_
*777 _0055_
*778 _0056_
*779 _0057_
*780 _0058_
*781 _0059_
*782 _0060_
*783 _0061_
*784 _0062_
*785 _0063_
*786 _0064_
*787 _0065_
*788 _0066_
*789 _0067_
*790 _0068_
*791 _0069_
*792 _0070_
*793 _0071_
*794 _0072_
*795 _0073_
*796 _0074_
*797 _0075_
*798 _0076_
*799 _0077_
*800 _0078_
*801 _0079_
*802 _0080_
*803 _0081_
*804 _0082_
*805 _0083_
*806 _0084_
*807 _0085_
*808 _0086_
*809 _0087_
*810 _0088_
*811 _0089_
*812 _0090_
*813 _0091_
*814 _0092_
*815 _0093_
*816 _0094_
*817 _0095_
*818 _0096_
*819 _0097_
*820 _0098_
*821 _0099_
*822 _0100_
*823 _0101_
*824 _0102_
*825 _0103_
*826 _0104_
*827 _0105_
*828 _0106_
*829 _0107_
*830 _0108_
*831 _0109_
*832 _0110_
*833 _0111_
*834 _0112_
*835 _0113_
*836 _0114_
*837 _0115_
*838 _0116_
*839 _0117_
*840 _0118_
*841 _0119_
*842 _0120_
*843 _0121_
*844 _0122_
*845 _0123_
*846 _0124_
*847 _0125_
*848 _0126_
*849 _0127_
*850 _0128_
*851 _0129_
*852 _0130_
*853 _0131_
*854 _0132_
*855 _0133_
*856 _0134_
*857 _0135_
*858 _0136_
*859 _0137_
*860 _0138_
*861 _0139_
*862 _0140_
*863 _0141_
*864 _0142_
*865 _0143_
*866 _0144_
*867 _0145_
*868 _0146_
*869 _0147_
*870 _0148_
*871 _0149_
*872 _0150_
*873 _0151_
*874 _0152_
*875 _0153_
*876 _0154_
*877 _0155_
*878 _0156_
*879 _0157_
*880 _0158_
*881 _0159_
*882 _0160_
*883 _0161_
*884 _0162_
*885 _0163_
*886 _0164_
*887 _0165_
*888 _0166_
*889 _0167_
*890 _0168_
*891 _0169_
*892 _0170_
*893 _0171_
*894 _0172_
*895 _0173_
*896 _0174_
*897 _0175_
*898 _0176_
*899 _0177_
*900 _0178_
*901 _0179_
*902 _0180_
*903 _0181_
*904 _0182_
*905 _0183_
*906 _0184_
*907 _0185_
*908 _0186_
*909 _0187_
*910 _0188_
*911 _0189_
*912 _0190_
*913 _0191_
*914 _0192_
*915 _0193_
*916 _0194_
*917 _0195_
*918 _0196_
*919 _0197_
*920 _0198_
*921 _0199_
*922 _0200_
*923 _0201_
*924 _0202_
*925 _0203_
*926 _0204_
*927 _0205_
*928 _0206_
*929 _0207_
*930 _0208_
*931 _0209_
*932 _0210_
*933 _0211_
*934 _0212_
*935 _0213_
*936 _0214_
*937 _0215_
*938 _0216_
*939 _0217_
*940 _0218_
*941 _0219_
*942 _0220_
*943 _0221_
*944 _0222_
*945 _0223_
*946 _0224_
*947 _0225_
*948 _0226_
*949 _0227_
*950 _0228_
*951 _0229_
*952 _0230_
*953 _0231_
*954 _0232_
*955 _0233_
*956 _0234_
*957 _0235_
*958 _0236_
*959 _0237_
*960 _0238_
*961 _0239_
*962 _0240_
*963 _0241_
*964 _0242_
*965 _0243_
*966 _0244_
*967 _0245_
*968 _0246_
*969 _0247_
*970 _0248_
*971 _0249_
*972 _0250_
*973 _0251_
*974 _0252_
*975 _0253_
*976 _0254_
*977 _0255_
*978 _0256_
*979 _0257_
*980 _0258_
*981 _0259_
*982 _0260_
*983 _0261_
*984 _0262_
*985 _0263_
*986 _0264_
*987 _0265_
*988 _0266_
*989 _0267_
*990 _0268_
*991 _0269_
*992 _0270_
*993 _0271_
*994 _0272_
*995 _0273_
*996 _0274_
*997 _0275_
*998 _0276_
*999 _0277_
*1000 _0278_
*1001 _0279_
*1002 _0280_
*1003 _0281_
*1004 _0282_
*1005 _0283_
*1006 _0284_
*1007 _0285_
*1008 _0286_
*1009 _0287_
*1010 _0288_
*1011 _0289_
*1012 _0290_
*1013 _0291_
*1014 _0292_
*1015 _0293_
*1016 _0294_
*1017 _0295_
*1018 _0296_
*1019 _0297_
*1020 _0298_
*1021 _0299_
*1022 _0300_
*1023 _0301_
*1024 _0302_
*1025 _0303_
*1026 _0304_
*1027 _0305_
*1028 _0306_
*1029 _0307_
*1030 _0308_
*1031 _0309_
*1032 _0310_
*1033 _0311_
*1034 _0312_
*1035 _0313_
*1036 _0314_
*1037 _0315_
*1038 _0316_
*1039 _0317_
*1040 _0318_
*1041 _0319_
*1042 _0320_
*1043 _0321_
*1044 _0322_
*1045 _0323_
*1046 _0324_
*1047 _0325_
*1048 _0326_
*1049 _0327_
*1050 _0328_
*1051 _0329_
*1052 _0330_
*1053 _0331_
*1054 _0332_
*1055 _0333_
*1056 _0334_
*1057 _0335_
*1058 _0336_
*1059 _0337_
*1060 _0338_
*1061 _0339_
*1062 _0340_
*1063 _0341_
*1064 _0342_
*1065 _0343_
*1066 _0344_
*1067 _0345_
*1068 _0346_
*1069 _0347_
*1070 _0348_
*1071 _0349_
*1072 _0350_
*1073 _0351_
*1074 _0352_
*1075 _0353_
*1076 _0354_
*1077 _0355_
*1078 _0356_
*1079 _0357_
*1080 _0358_
*1081 _0359_
*1082 _0360_
*1083 _0361_
*1084 _0362_
*1085 _0363_
*1086 _0364_
*1087 _0365_
*1088 _0366_
*1089 _0367_
*1090 _0368_
*1091 _0369_
*1092 _0370_
*1093 _0371_
*1094 _0372_
*1095 _0373_
*1096 _0374_
*1097 _0375_
*1098 _0376_
*1099 _0377_
*1100 _0378_
*1101 _0379_
*1102 _0380_
*1103 _0381_
*1104 _0382_
*1105 _0383_
*1106 _0384_
*1107 _0385_
*1108 _0386_
*1109 _0387_
*1110 _0388_
*1111 _0389_
*1112 _0390_
*1113 _0391_
*1114 _0392_
*1115 _0393_
*1116 _0394_
*1117 _0395_
*1118 _0396_
*1119 _0397_
*1120 _0398_
*1121 _0399_
*1122 _0400_
*1123 _0401_
*1124 _0402_
*1125 _0403_
*1126 _0404_
*1127 _0405_
*1128 _0406_
*1129 _0407_
*1130 _0408_
*1131 _0409_
*1132 _0410_
*1133 _0411_
*1134 _0412_
*1135 _0413_
*1136 _0414_
*1137 _0415_
*1138 _0416_
*1139 _0417_
*1140 _0418_
*1141 _0419_
*1142 _0420_
*1143 _0421_
*1144 _0422_
*1145 _0423_
*1146 _0424_
*1147 _0425_
*1148 _0426_
*1149 _0427_
*1150 _0428_
*1151 _0429_
*1152 _0430_
*1153 _0431_
*1154 _0432_
*1155 _0433_
*1156 _0434_
*1157 _0435_
*1158 _0436_
*1159 _0437_
*1160 _0438_
*1161 _0439_
*1162 _0440_
*1163 _0441_
*1164 _0442_
*1165 _0443_
*1166 _0444_
*1167 _0445_
*1168 _0446_
*1169 _0447_
*1170 _0448_
*1171 _0449_
*1172 _0450_
*1173 _0451_
*1174 _0452_
*1175 _0453_
*1176 _0454_
*1177 _0455_
*1178 _0456_
*1179 _0457_
*1180 _0458_
*1181 _0459_
*1182 _0460_
*1183 _0461_
*1184 _0462_
*1185 _0463_
*1186 _0464_
*1187 _0465_
*1188 _0466_
*1189 _0467_
*1190 _0468_
*1191 _0469_
*1192 _0470_
*1193 _0471_
*1194 _0472_
*1195 _0473_
*1196 _0474_
*1197 _0475_
*1198 _0476_
*1199 _0477_
*1200 _0478_
*1201 _0479_
*1202 _0480_
*1203 _0481_
*1204 _0482_
*1205 _0483_
*1206 _0484_
*1207 _0485_
*1208 _0486_
*1209 _0487_
*1210 _0488_
*1211 _0489_
*1212 _0490_
*1213 _0491_
*1214 _0492_
*1215 _0493_
*1216 _0494_
*1217 _0495_
*1218 _0496_
*1219 _0497_
*1220 _0498_
*1221 _0499_
*1222 _0500_
*1223 _0501_
*1224 _0502_
*1225 _0503_
*1226 _0504_
*1227 _0505_
*1228 _0506_
*1229 _0507_
*1230 _0508_
*1231 _0509_
*1232 _0510_
*1233 _0511_
*1234 _0512_
*1235 _0513_
*1236 _0514_
*1237 _0515_
*1238 _0516_
*1239 _0517_
*1240 _0518_
*1241 _0519_
*1242 _0520_
*1243 _0521_
*1244 _0522_
*1245 _0523_
*1246 _0524_
*1247 _0525_
*1248 _0526_
*1249 _0527_
*1250 _0528_
*1251 _0529_
*1252 _0530_
*1253 _0531_
*1254 _0532_
*1255 _0533_
*1256 _0534_
*1257 _0535_
*1258 _0536_
*1259 _0537_
*1260 _0538_
*1261 _0539_
*1262 _0540_
*1263 _0541_
*1264 _0542_
*1265 _0543_
*1266 _0544_
*1267 _0545_
*1268 _0546_
*1269 _0547_
*1270 _0548_
*1271 _0549_
*1272 _0550_
*1273 _0551_
*1274 _0552_
*1275 _0553_
*1276 _0554_
*1277 _0555_
*1278 _0556_
*1279 _0557_
*1280 _0558_
*1281 _0559_
*1282 _0560_
*1283 _0561_
*1284 _0562_
*1285 _0563_
*1286 _0564_
*1287 _0565_
*1288 _0566_
*1289 _0567_
*1290 _0568_
*1291 _0569_
*1292 _0570_
*1293 _0571_
*1294 _0572_
*1295 _0573_
*1296 _0574_
*1297 _0575_
*1298 _0576_
*1299 _0577_
*1300 _0578_
*1301 _0579_
*1302 _0580_
*1303 _0581_
*1304 _0582_
*1305 _0583_
*1306 _0584_
*1307 _0585_
*1308 _0586_
*1309 _0587_
*1310 _0588_
*1311 _0589_
*1312 _0590_
*1313 _0591_
*1314 _0592_
*1315 _0593_
*1316 _0594_
*1317 _0595_
*1318 _0596_
*1319 _0597_
*1320 _0598_
*1321 _0599_
*1322 _0600_
*1323 _0601_
*1324 _0602_
*1325 _0603_
*1326 _0604_
*1327 _0605_
*1328 _0606_
*1329 _0607_
*1330 _0608_
*1331 _0609_
*1332 _0610_
*1333 _0611_
*1334 _0612_
*1335 _0613_
*1336 _0614_
*1337 _0615_
*1338 _0616_
*1339 _0617_
*1340 _0618_
*1341 _0619_
*1342 _0620_
*1343 _0621_
*1344 _0622_
*1345 _0623_
*1346 _0624_
*1347 _0625_
*1348 _0626_
*1349 _0627_
*1350 _0628_
*1351 _0629_
*1352 _0630_
*1353 _0631_
*1354 _0632_
*1355 _0633_
*1356 _0634_
*1357 _0635_
*1358 _0636_
*1359 _0637_
*1360 _0638_
*1361 _0639_
*1362 _0640_
*1363 _0641_
*1364 _0642_
*1365 _0643_
*1366 _0644_
*1367 _0645_
*1368 _0646_
*1369 _0647_
*1370 _0648_
*1371 _0649_
*1372 _0650_
*1373 _0651_
*1374 _0652_
*1375 _0653_
*1376 _0654_
*1377 _0655_
*1378 _0656_
*1379 _0657_
*1380 _0658_
*1381 _0659_
*1382 _0660_
*1383 _0661_
*1384 _0662_
*1385 _0663_
*1386 _0664_
*1387 _0665_
*1388 _0666_
*1389 _0667_
*1390 _0668_
*1391 _0669_
*1392 _0670_
*1393 _0671_
*1394 _0672_
*1395 _0673_
*1396 _0674_
*1397 _0675_
*1398 _0676_
*1399 _0677_
*1400 _0678_
*1401 _0679_
*1402 _0680_
*1403 _0681_
*1404 _0682_
*1405 _0683_
*1406 _0684_
*1407 _0685_
*1408 _0686_
*1409 _0687_
*1410 _0688_
*1411 _0689_
*1412 _0690_
*1413 _0691_
*1414 _0692_
*1415 _0693_
*1416 _0694_
*1417 _0695_
*1418 _0696_
*1419 _0697_
*1420 _0698_
*1421 _0699_
*1422 _0700_
*1423 _0701_
*1424 _0702_
*1425 _0703_
*1426 _0704_
*1427 _0705_
*1428 _0706_
*1429 _0707_
*1430 _0708_
*1431 _0709_
*1432 _0710_
*1433 _0711_
*1434 _0712_
*1435 _0713_
*1436 _0714_
*1437 _0715_
*1438 _0716_
*1439 _0717_
*1440 _0718_
*1441 _0719_
*1442 _0720_
*1443 _0721_
*1444 _0722_
*1445 _0723_
*1446 _0724_
*1447 _0725_
*1448 _0726_
*1449 _0727_
*1450 _0728_
*1451 _0729_
*1452 _0730_
*1453 _0731_
*1454 _0732_
*1455 _0733_
*1456 _0734_
*1457 _0735_
*1458 _0736_
*1459 _0737_
*1460 _0738_
*1461 _0739_
*1462 _0740_
*1463 _0741_
*1464 _0742_
*1465 _0743_
*1466 _0744_
*1467 _0745_
*1468 _0746_
*1469 _0747_
*1470 _0748_
*1471 _0749_
*1472 _0750_
*1473 _0751_
*1474 _0752_
*1475 _0753_
*1476 _0754_
*1477 _0755_
*1478 _0756_
*1479 _0757_
*1480 _0758_
*1481 _0759_
*1482 _0760_
*1483 _0761_
*1484 _0762_
*1485 _0763_
*1486 _0764_
*1487 _0765_
*1488 _0766_
*1489 _0767_
*1490 _0768_
*1491 _0769_
*1492 _0770_
*1493 _0771_
*1494 _0772_
*1495 _0773_
*1496 _0774_
*1497 _0775_
*1498 _0776_
*1499 _0777_
*1500 _0778_
*1501 _0779_
*1502 _0780_
*1503 _0781_
*1504 _0782_
*1505 _0783_
*1506 _0784_
*1507 _0785_
*1508 _0786_
*1509 _0787_
*1510 _0788_
*1511 _0789_
*1512 _0790_
*1513 _0791_
*1514 _0792_
*1515 _0793_
*1516 _0794_
*1517 _0795_
*1518 _0796_
*1519 _0797_
*1520 _0798_
*1521 _0799_
*1522 _0800_
*1523 _0801_
*1524 _0802_
*1525 _0803_
*1526 _0804_
*1527 _0805_
*1528 _0806_
*1529 _0807_
*1530 _0808_
*1531 _0809_
*1532 _0810_
*1533 _0811_
*1534 _0812_
*1535 _0813_
*1536 _0814_
*1537 _0815_
*1538 _0816_
*1539 _0817_
*1540 _0818_
*1541 _0819_
*1542 _0820_
*1543 _0821_
*1544 _0822_
*1545 _0823_
*1546 _0824_
*1547 _0825_
*1548 _0826_
*1549 _0827_
*1550 _0828_
*1551 _0829_
*1552 _0830_
*1553 _0831_
*1554 _0832_
*1555 _0833_
*1556 _0834_
*1557 _0835_
*1558 _0836_
*1559 _0837_
*1560 _0838_
*1561 _0839_
*1562 _0840_
*1563 _0841_
*1564 _0842_
*1565 _0843_
*1566 _0844_
*1567 _0845_
*1568 _0846_
*1569 _0847_
*1570 _0848_
*1571 _0849_
*1572 _0850_
*1573 _0851_
*1574 _0852_
*1575 _0853_
*1576 _0854_
*1577 _0855_
*1578 _0856_
*1579 _0857_
*1580 _0858_
*1581 _0859_
*1582 _0860_
*1583 _0861_
*1584 _0862_
*1585 _0863_
*1586 _0864_
*1587 _0865_
*1588 _0866_
*1589 _0867_
*1590 _0868_
*1591 _0869_
*1592 _0870_
*1593 _0871_
*1594 _0872_
*1595 _0873_
*1596 _0874_
*1597 _0875_
*1598 _0876_
*1599 _0877_
*1600 _0878_
*1601 _0879_
*1602 _0880_
*1603 _0881_
*1604 _0882_
*1605 _0883_
*1606 _0884_
*1607 _0885_
*1608 _0886_
*1609 _0887_
*1610 _0888_
*1611 _0889_
*1612 _0890_
*1613 _0891_
*1614 _0892_
*1615 _0893_
*1616 _0894_
*1617 _0895_
*1618 _0896_
*1619 _0897_
*1620 _0898_
*1621 _0899_
*1622 _0900_
*1623 _0901_
*1624 _0902_
*1625 _0903_
*1626 _0904_
*1627 _0905_
*1628 _0906_
*1629 _0907_
*1630 _0908_
*1631 _0909_
*1632 _0910_
*1633 _0911_
*1634 _0912_
*1635 _0913_
*1636 _0914_
*1637 _0915_
*1638 _0916_
*1639 _0917_
*1640 _0918_
*1641 _0919_
*1642 _0920_
*1643 _0921_
*1644 _0922_
*1645 _0923_
*1646 _0924_
*1647 _0925_
*1648 _0926_
*1649 _0927_
*1650 _0928_
*1651 _0929_
*1652 _0930_
*1653 _0931_
*1654 _0932_
*1655 _0933_
*1656 _0934_
*1657 _0935_
*1658 _0936_
*1659 _0937_
*1660 _0938_
*1661 _0939_
*1662 _0940_
*1663 _0941_
*1664 _0942_
*1665 _0943_
*1666 _0944_
*1667 _0945_
*1668 _0946_
*1669 _0947_
*1670 _0948_
*1671 _0949_
*1672 _0950_
*1673 _0951_
*1674 _0952_
*1675 _0953_
*1676 _0954_
*1677 _0955_
*1678 _0956_
*1679 _0957_
*1680 _0958_
*1681 _0959_
*1682 _0960_
*1683 _0961_
*1684 _0962_
*1685 _0963_
*1686 _0964_
*1687 _0965_
*1688 _0966_
*1689 _0967_
*1690 _0968_
*1691 _0969_
*1692 _0970_
*1693 _0971_
*1694 _0972_
*1695 _0973_
*1696 _0974_
*1697 _0975_
*1698 _0976_
*1699 _0977_
*1700 _0978_
*1701 _0979_
*1702 _0980_
*1703 _0981_
*1704 _0982_
*1705 _0983_
*1706 _0984_
*1707 _0985_
*1708 _0986_
*1709 _0987_
*1710 _0988_
*1711 _0989_
*1712 _0990_
*1713 _0991_
*1714 _0992_
*1715 _0993_
*1716 _0994_
*1717 _0995_
*1718 _0996_
*1719 _0997_
*1720 _0998_
*1721 _0999_
*1722 _1000_
*1723 _1001_
*1724 _1002_
*1725 _1003_
*1726 _1004_
*1727 _1005_
*1728 _1006_
*1729 _1007_
*1730 _1008_
*1731 _1009_
*1732 _1010_
*1733 _1011_
*1734 _1012_
*1735 _1013_
*1736 _1014_
*1737 _1015_
*1738 _1016_
*1739 _1017_
*1740 _1018_
*1741 _1019_
*1742 _1020_
*1743 _1021_
*1744 _1022_
*1745 _1023_
*1746 _1024_
*1747 _1025_
*1748 _1026_
*1749 _1027_
*1750 _1028_
*1751 _1029_
*1752 _1030_
*1753 _1031_
*1754 _1032_
*1755 _1033_
*1756 _1034_
*1757 _1035_
*1758 _1036_
*1759 _1037_
*1760 _1038_
*1761 _1039_
*1762 _1040_
*1763 _1041_
*1764 _1042_
*1765 _1043_
*1766 _1044_
*1767 _1045_
*1768 _1046_
*1769 _1047_
*1770 _1048_
*1771 _1049_
*1772 _1050_
*1773 _1051_
*1774 _1052_
*1775 _1053_
*1776 _1054_
*1777 _1055_
*1778 _1056_
*1779 _1057_
*1780 _1058_
*1781 _1059_
*1782 _1060_
*1783 _1061_
*1784 _1062_
*1785 _1063_
*1786 _1064_
*1787 _1065_
*1788 _1066_
*1789 _1067_
*1790 _1068_
*1791 _1069_
*1792 _1070_
*1793 _1071_
*1794 _1072_
*1795 _1073_
*1796 _1074_
*1797 _1075_
*1798 _1076_
*1799 _1077_
*1800 _1078_
*1801 _1079_
*1802 _1080_
*1803 _1081_
*1804 _1082_
*1805 _1083_
*1806 _1084_
*1807 _1085_
*1808 _1086_
*1809 _1087_
*1810 _1088_
*1811 _1089_
*1812 _1090_
*1813 _1091_
*1814 _1092_
*1815 _1093_
*1816 _1094_
*1817 _1095_
*1818 _1096_
*1819 _1097_
*1820 _1098_
*1821 _1099_
*1822 _1100_
*1823 _1101_
*1824 _1102_
*1825 _1103_
*1826 _1104_
*1827 _1105_
*1828 _1106_
*1829 _1107_
*1830 _1108_
*1831 _1109_
*1832 _1110_
*1833 _1111_
*1834 _1112_
*1835 _1113_
*1836 _1114_
*1837 _1115_
*1838 _1116_
*1839 _1117_
*1840 _1118_
*1841 _1119_
*1842 _1120_
*1843 _1121_
*1844 _1122_
*1845 _1123_
*1846 _1124_
*1847 _1125_
*1848 _1126_
*1849 _1127_
*1850 _1128_
*1851 _1129_
*1852 _1130_
*1853 _1131_
*1854 _1132_
*1855 _1133_
*1856 _1134_
*1857 _1135_
*1858 _1136_
*1859 _1137_
*1860 _1138_
*1861 _1139_
*1862 _1140_
*1863 _1141_
*1864 _1142_
*1865 _1143_
*1866 _1144_
*1867 _1145_
*1868 _1146_
*1869 _1147_
*1870 _1148_
*1871 _1149_
*1872 _1150_
*1873 _1151_
*1874 _1152_
*1875 _1153_
*1876 _1154_
*1877 _1155_
*1878 _1156_
*1879 _1157_
*1880 _1158_
*1881 _1159_
*1882 _1160_
*1883 _1161_
*1884 _1162_
*1885 _1163_
*1886 _1164_
*1887 _1165_
*1888 _1166_
*1889 _1167_
*1890 _1168_
*1891 _1169_
*1892 _1170_
*1893 _1171_
*1894 _1172_
*1895 _1173_
*1896 _1174_
*1897 _1175_
*1898 _1176_
*1899 _1177_
*1900 _1178_
*1901 _1179_
*1902 _1180_
*1903 _1181_
*1904 _1182_
*1905 _1183_
*1906 _1184_
*1907 _1185_
*1908 _1186_
*1909 _1187_
*1910 _1188_
*1911 _1189_
*1912 _1190_
*1913 _1191_
*1914 _1192_
*1915 _1193_
*1916 _1194_
*1917 _1195_
*1918 _1196_
*1919 _1197_
*1920 _1198_
*1921 _1199_
*1922 _1200_
*1923 _1201_
*1924 _1202_
*1925 _1203_
*1926 _1204_
*1927 _1205_
*1928 _1206_
*1929 _1207_
*1930 _1208_
*1931 _1209_
*1932 _1210_
*1933 _1211_
*1934 _1212_
*1935 _1213_
*1936 _1214_
*1937 _1215_
*1938 _1216_
*1939 _1217_
*1940 _1218_
*1941 _1219_
*1942 _1220_
*1943 _1221_
*1944 _1222_
*1945 _1223_
*1946 _1224_
*1947 _1225_
*1948 _1226_
*1949 _1227_
*1950 _1228_
*1951 _1229_
*1952 _1230_
*1953 _1231_
*1954 _1232_
*1955 _1233_
*1956 _1234_
*1957 _1235_
*1958 _1236_
*1959 _1237_
*1960 _1238_
*1961 _1239_
*1962 _1240_
*1963 _1241_
*1964 _1242_
*1965 _1243_
*1966 _1244_
*1967 _1245_
*1968 _1246_
*1969 _1247_
*1970 _1248_
*1971 _1249_
*1972 _1250_
*1973 _1251_
*1974 _1252_
*1975 _1253_
*1976 _1254_
*1977 _1255_
*1978 _1256_
*1979 _1257_
*1980 _1258_
*1981 _1259_
*1982 _1260_
*1983 _1261_
*1984 _1262_
*1985 _1263_
*1986 _1264_
*1987 _1265_
*1988 _1266_
*1989 _1267_
*1990 _1268_
*1991 _1269_
*1992 _1270_
*1993 _1271_
*1994 _1272_
*1995 _1273_
*1996 _1274_
*1997 _1275_
*1998 _1276_
*1999 _1277_
*2000 _1278_
*2001 _1279_
*2002 _1280_
*2003 _1281_
*2004 _1282_
*2005 _1283_
*2006 _1284_
*2007 _1285_
*2008 _1286_
*2009 _1287_
*2010 _1288_
*2011 _1289_
*2012 _1290_
*2013 _1291_
*2014 _1292_
*2015 _1293_
*2016 _1294_
*2017 _1295_
*2018 _1296_
*2019 _1297_
*2020 _1298_
*2021 _1299_
*2022 _1300_
*2023 _1301_
*2024 _1302_
*2025 _1303_
*2026 _1304_
*2027 _1305_
*2028 _1306_
*2029 _1307_
*2030 _1308_
*2031 _1309_
*2032 _1310_
*2033 _1311_
*2034 _1312_
*2035 _1313_
*2036 _1314_
*2037 _1315_
*2038 _1316_
*2039 _1317_
*2040 _1318_
*2041 _1319_
*2042 _1320_
*2043 _1321_
*2044 _1322_
*2045 _1323_
*2046 _1324_
*2047 _1325_
*2048 _1326_
*2049 _1327_
*2050 _1328_
*2051 _1329_
*2052 _1330_
*2053 _1331_
*2054 _1332_
*2055 _1333_
*2056 _1334_
*2057 _1335_
*2058 _1336_
*2059 _1337_
*2060 _1338_
*2061 _1339_
*2062 _1340_
*2063 _1341_
*2064 _1342_
*2065 _1343_
*2066 _1344_
*2067 _1345_
*2068 _1346_
*2069 _1347_
*2070 _1348_
*2071 _1349_
*2072 _1350_