*SPEF "ieee 1481-1999"
*DESIGN "t2"
*DATE "11:11:11 Fri 11 11, 1111"
*VENDOR "OpenRCX"
*PROGRAM "Parallel Extraction"
*VERSION "1.0"
*DESIGN_FLOW "NAME_SCOPE LOCAL" "PIN_CAP NONE"
*DIVIDER /
*DELIMITER :
*BUS_DELIMITER []
*T_UNIT 1 NS
*C_UNIT 1 PF
*R_UNIT 1 OHM
*L_UNIT 1 HENRY

*NAME_MAP
*1 a
*2 b
*3 c
*6 _0_
*7 net1
*8 net2
*9 net3
*10 ANTENNA_input1_A
*11 ANTENNA_input2_A
*12 FILLER_0_109
*13 FILLER_0_113
*14 FILLER_0_125
*15 FILLER_0_137
*16 FILLER_0_141
*17 FILLER_0_15
*18 FILLER_0_153
*19 FILLER_0_165
*20 FILLER_0_169
*21 FILLER_0_181
*22 FILLER_0_193
*23 FILLER_0_197
*24 FILLER_0_209
*25 FILLER_0_221
*26 FILLER_0_225
*27 FILLER_0_237
*28 FILLER_0_249
*29 FILLER_0_253
*30 FILLER_0_265
*31 FILLER_0_27
*32 FILLER_0_277
*33 FILLER_0_281
*34 FILLER_0_29
*35 FILLER_0_293
*36 FILLER_0_3
*37 FILLER_0_305
*38 FILLER_0_309
*39 FILLER_0_321
*40 FILLER_0_333
*41 FILLER_0_337
*42 FILLER_0_349
*43 FILLER_0_361
*44 FILLER_0_365
*45 FILLER_0_377
*46 FILLER_0_389
*47 FILLER_0_393
*48 FILLER_0_405
*49 FILLER_0_41
*50 FILLER_0_53
*51 FILLER_0_57
*52 FILLER_0_69
*53 FILLER_0_81
*54 FILLER_0_85
*55 FILLER_0_97
*56 FILLER_10_109
*57 FILLER_10_121
*58 FILLER_10_133
*59 FILLER_10_139
*60 FILLER_10_141
*61 FILLER_10_15
*62 FILLER_10_153
*63 FILLER_10_165
*64 FILLER_10_177
*65 FILLER_10_189
*66 FILLER_10_195
*67 FILLER_10_197
*68 FILLER_10_209
*69 FILLER_10_221
*70 FILLER_10_233
*71 FILLER_10_245
*72 FILLER_10_251
*73 FILLER_10_253
*74 FILLER_10_265
*75 FILLER_10_27
*76 FILLER_10_277
*77 FILLER_10_289
*78 FILLER_10_29
*79 FILLER_10_3
*80 FILLER_10_301
*81 FILLER_10_307
*82 FILLER_10_309
*83 FILLER_10_321
*84 FILLER_10_333
*85 FILLER_10_345
*86 FILLER_10_357
*87 FILLER_10_363
*88 FILLER_10_365
*89 FILLER_10_377
*90 FILLER_10_389
*91 FILLER_10_401
*92 FILLER_10_41
*93 FILLER_10_53
*94 FILLER_10_65
*95 FILLER_10_77
*96 FILLER_10_83
*97 FILLER_10_85
*98 FILLER_10_97
*99 FILLER_11_105
*100 FILLER_11_111
*101 FILLER_11_113
*102 FILLER_11_125
*103 FILLER_11_137
*104 FILLER_11_149
*105 FILLER_11_15
*106 FILLER_11_161
*107 FILLER_11_167
*108 FILLER_11_169
*109 FILLER_11_181
*110 FILLER_11_193
*111 FILLER_11_205
*112 FILLER_11_217
*113 FILLER_11_223
*114 FILLER_11_225
*115 FILLER_11_237
*116 FILLER_11_249
*117 FILLER_11_261
*118 FILLER_11_27
*119 FILLER_11_273
*120 FILLER_11_279
*121 FILLER_11_281
*122 FILLER_11_293
*123 FILLER_11_3
*124 FILLER_11_305
*125 FILLER_11_317
*126 FILLER_11_329
*127 FILLER_11_335
*128 FILLER_11_337
*129 FILLER_11_349
*130 FILLER_11_361
*131 FILLER_11_373
*132 FILLER_11_385
*133 FILLER_11_39
*134 FILLER_11_391
*135 FILLER_11_393
*136 FILLER_11_405
*137 FILLER_11_51
*138 FILLER_11_55
*139 FILLER_11_57
*140 FILLER_11_69
*141 FILLER_11_81
*142 FILLER_11_93
*143 FILLER_12_109
*144 FILLER_12_121
*145 FILLER_12_133
*146 FILLER_12_139
*147 FILLER_12_141
*148 FILLER_12_15
*149 FILLER_12_153
*150 FILLER_12_165
*151 FILLER_12_177
*152 FILLER_12_189
*153 FILLER_12_195
*154 FILLER_12_197
*155 FILLER_12_209
*156 FILLER_12_221
*157 FILLER_12_233
*158 FILLER_12_245
*159 FILLER_12_251
*160 FILLER_12_253
*161 FILLER_12_265
*162 FILLER_12_27
*163 FILLER_12_277
*164 FILLER_12_289
*165 FILLER_12_29
*166 FILLER_12_3
*167 FILLER_12_301
*168 FILLER_12_307
*169 FILLER_12_309
*170 FILLER_12_321
*171 FILLER_12_333
*172 FILLER_12_345
*173 FILLER_12_357
*174 FILLER_12_363
*175 FILLER_12_365
*176 FILLER_12_377
*177 FILLER_12_389
*178 FILLER_12_401
*179 FILLER_12_41
*180 FILLER_12_53
*181 FILLER_12_65
*182 FILLER_12_77
*183 FILLER_12_83
*184 FILLER_12_85
*185 FILLER_12_97
*186 FILLER_13_105
*187 FILLER_13_111
*188 FILLER_13_113
*189 FILLER_13_125
*190 FILLER_13_137
*191 FILLER_13_149
*192 FILLER_13_15
*193 FILLER_13_161
*194 FILLER_13_167
*195 FILLER_13_169
*196 FILLER_13_181
*197 FILLER_13_193
*198 FILLER_13_205
*199 FILLER_13_217
*200 FILLER_13_223
*201 FILLER_13_225
*202 FILLER_13_237
*203 FILLER_13_249
*204 FILLER_13_261
*205 FILLER_13_27
*206 FILLER_13_273
*207 FILLER_13_279
*208 FILLER_13_281
*209 FILLER_13_293
*210 FILLER_13_3
*211 FILLER_13_305
*212 FILLER_13_317
*213 FILLER_13_329
*214 FILLER_13_335
*215 FILLER_13_337
*216 FILLER_13_349
*217 FILLER_13_361
*218 FILLER_13_373
*219 FILLER_13_385
*220 FILLER_13_39
*221 FILLER_13_391
*222 FILLER_13_393
*223 FILLER_13_405
*224 FILLER_13_51
*225 FILLER_13_55
*226 FILLER_13_57
*227 FILLER_13_69
*228 FILLER_13_81
*229 FILLER_13_93
*230 FILLER_14_109
*231 FILLER_14_121
*232 FILLER_14_133
*233 FILLER_14_139
*234 FILLER_14_141
*235 FILLER_14_15
*236 FILLER_14_153
*237 FILLER_14_165
*238 FILLER_14_177
*239 FILLER_14_189
*240 FILLER_14_195
*241 FILLER_14_197
*242 FILLER_14_209
*243 FILLER_14_221
*244 FILLER_14_233
*245 FILLER_14_245
*246 FILLER_14_251
*247 FILLER_14_253
*248 FILLER_14_265
*249 FILLER_14_27
*250 FILLER_14_277
*251 FILLER_14_289
*252 FILLER_14_29
*253 FILLER_14_3
*254 FILLER_14_301
*255 FILLER_14_307
*256 FILLER_14_309
*257 FILLER_14_321
*258 FILLER_14_333
*259 FILLER_14_345
*260 FILLER_14_357
*261 FILLER_14_363
*262 FILLER_14_365
*263 FILLER_14_377
*264 FILLER_14_389
*265 FILLER_14_401
*266 FILLER_14_41
*267 FILLER_14_53
*268 FILLER_14_65
*269 FILLER_14_77
*270 FILLER_14_83
*271 FILLER_14_85
*272 FILLER_14_97
*273 FILLER_15_105
*274 FILLER_15_111
*275 FILLER_15_113
*276 FILLER_15_125
*277 FILLER_15_137
*278 FILLER_15_149
*279 FILLER_15_15
*280 FILLER_15_161
*281 FILLER_15_167
*282 FILLER_15_169
*283 FILLER_15_181
*284 FILLER_15_193
*285 FILLER_15_205
*286 FILLER_15_217
*287 FILLER_15_223
*288 FILLER_15_225
*289 FILLER_15_237
*290 FILLER_15_249
*291 FILLER_15_261
*292 FILLER_15_27
*293 FILLER_15_273
*294 FILLER_15_279
*295 FILLER_15_281
*296 FILLER_15_293
*297 FILLER_15_3
*298 FILLER_15_305
*299 FILLER_15_317
*300 FILLER_15_329
*301 FILLER_15_335
*302 FILLER_15_337
*303 FILLER_15_349
*304 FILLER_15_361
*305 FILLER_15_373
*306 FILLER_15_385
*307 FILLER_15_39
*308 FILLER_15_391
*309 FILLER_15_393
*310 FILLER_15_405
*311 FILLER_15_51
*312 FILLER_15_55
*313 FILLER_15_57
*314 FILLER_15_69
*315 FILLER_15_81
*316 FILLER_15_93
*317 FILLER_16_109
*318 FILLER_16_121
*319 FILLER_16_133
*320 FILLER_16_139
*321 FILLER_16_141
*322 FILLER_16_15
*323 FILLER_16_153
*324 FILLER_16_165
*325 FILLER_16_177
*326 FILLER_16_189
*327 FILLER_16_195
*328 FILLER_16_197
*329 FILLER_16_209
*330 FILLER_16_221
*331 FILLER_16_233
*332 FILLER_16_245
*333 FILLER_16_251
*334 FILLER_16_253
*335 FILLER_16_265
*336 FILLER_16_27
*337 FILLER_16_277
*338 FILLER_16_289
*339 FILLER_16_29
*340 FILLER_16_3
*341 FILLER_16_301
*342 FILLER_16_307
*343 FILLER_16_309
*344 FILLER_16_321
*345 FILLER_16_333
*346 FILLER_16_345
*347 FILLER_16_357
*348 FILLER_16_363
*349 FILLER_16_365
*350 FILLER_16_377
*351 FILLER_16_389
*352 FILLER_16_401
*353 FILLER_16_41
*354 FILLER_16_53
*355 FILLER_16_65
*356 FILLER_16_77
*357 FILLER_16_83
*358 FILLER_16_85
*359 FILLER_16_97
*360 FILLER_17_105
*361 FILLER_17_111
*362 FILLER_17_113
*363 FILLER_17_125
*364 FILLER_17_137
*365 FILLER_17_149
*366 FILLER_17_15
*367 FILLER_17_161
*368 FILLER_17_167
*369 FILLER_17_169
*370 FILLER_17_181
*371 FILLER_17_193
*372 FILLER_17_205
*373 FILLER_17_217
*374 FILLER_17_223
*375 FILLER_17_225
*376 FILLER_17_237
*377 FILLER_17_249
*378 FILLER_17_261
*379 FILLER_17_27
*380 FILLER_17_273
*381 FILLER_17_279
*382 FILLER_17_281
*383 FILLER_17_293
*384 FILLER_17_3
*385 FILLER_17_305
*386 FILLER_17_317
*387 FILLER_17_329
*388 FILLER_17_335
*389 FILLER_17_337
*390 FILLER_17_349
*391 FILLER_17_361
*392 FILLER_17_373
*393 FILLER_17_385
*394 FILLER_17_39
*395 FILLER_17_391
*396 FILLER_17_393
*397 FILLER_17_405
*398 FILLER_17_51
*399 FILLER_17_55
*400 FILLER_17_57
*401 FILLER_17_69
*402 FILLER_17_81
*403 FILLER_17_93
*404 FILLER_18_109
*405 FILLER_18_121
*406 FILLER_18_133
*407 FILLER_18_139
*408 FILLER_18_141
*409 FILLER_18_15
*410 FILLER_18_153
*411 FILLER_18_165
*412 FILLER_18_177
*413 FILLER_18_189
*414 FILLER_18_195
*415 FILLER_18_197
*416 FILLER_18_209
*417 FILLER_18_221
*418 FILLER_18_233
*419 FILLER_18_245
*420 FILLER_18_251
*421 FILLER_18_253
*422 FILLER_18_265
*423 FILLER_18_27
*424 FILLER_18_277
*425 FILLER_18_289
*426 FILLER_18_29
*427 FILLER_18_3
*428 FILLER_18_301
*429 FILLER_18_307
*430 FILLER_18_309
*431 FILLER_18_321
*432 FILLER_18_333
*433 FILLER_18_345
*434 FILLER_18_357
*435 FILLER_18_363
*436 FILLER_18_365
*437 FILLER_18_377
*438 FILLER_18_389
*439 FILLER_18_401
*440 FILLER_18_41
*441 FILLER_18_53
*442 FILLER_18_65
*443 FILLER_18_77
*444 FILLER_18_83
*445 FILLER_18_85
*446 FILLER_18_97
*447 FILLER_19_105
*448 FILLER_19_111
*449 FILLER_19_113
*450 FILLER_19_125
*451 FILLER_19_137
*452 FILLER_19_149
*453 FILLER_19_15
*454 FILLER_19_161
*455 FILLER_19_167
*456 FILLER_19_169
*457 FILLER_19_181
*458 FILLER_19_193
*459 FILLER_19_205
*460 FILLER_19_217
*461 FILLER_19_223
*462 FILLER_19_225
*463 FILLER_19_237
*464 FILLER_19_249
*465 FILLER_19_261
*466 FILLER_19_27
*467 FILLER_19_273
*468 FILLER_19_279
*469 FILLER_19_281
*470 FILLER_19_293
*471 FILLER_19_3
*472 FILLER_19_305
*473 FILLER_19_317
*474 FILLER_19_329
*475 FILLER_19_335
*476 FILLER_19_337
*477 FILLER_19_349
*478 FILLER_19_361
*479 FILLER_19_373
*480 FILLER_19_385
*481 FILLER_19_39
*482 FILLER_19_391
*483 FILLER_19_393
*484 FILLER_19_405
*485 FILLER_19_51
*486 FILLER_19_55
*487 FILLER_19_57
*488 FILLER_19_69
*489 FILLER_19_81
*490 FILLER_19_93
*491 FILLER_1_105
*492 FILLER_1_111
*493 FILLER_1_113
*494 FILLER_1_125
*495 FILLER_1_137
*496 FILLER_1_149
*497 FILLER_1_15
*498 FILLER_1_161
*499 FILLER_1_167
*500 FILLER_1_169
*501 FILLER_1_181
*502 FILLER_1_193
*503 FILLER_1_205
*504 FILLER_1_217
*505 FILLER_1_223
*506 FILLER_1_225
*507 FILLER_1_237
*508 FILLER_1_249
*509 FILLER_1_261
*510 FILLER_1_27
*511 FILLER_1_273
*512 FILLER_1_279
*513 FILLER_1_281
*514 FILLER_1_293
*515 FILLER_1_3
*516 FILLER_1_305
*517 FILLER_1_317
*518 FILLER_1_329
*519 FILLER_1_335
*520 FILLER_1_337
*521 FILLER_1_349
*522 FILLER_1_361
*523 FILLER_1_373
*524 FILLER_1_385
*525 FILLER_1_39
*526 FILLER_1_391
*527 FILLER_1_393
*528 FILLER_1_405
*529 FILLER_1_51
*530 FILLER_1_55
*531 FILLER_1_57
*532 FILLER_1_69
*533 FILLER_1_81
*534 FILLER_1_93
*535 FILLER_20_109
*536 FILLER_20_121
*537 FILLER_20_133
*538 FILLER_20_139
*539 FILLER_20_141
*540 FILLER_20_15
*541 FILLER_20_153
*542 FILLER_20_165
*543 FILLER_20_177
*544 FILLER_20_189
*545 FILLER_20_195
*546 FILLER_20_197
*547 FILLER_20_209
*548 FILLER_20_221
*549 FILLER_20_233
*550 FILLER_20_245
*551 FILLER_20_251
*552 FILLER_20_253
*553 FILLER_20_265
*554 FILLER_20_27
*555 FILLER_20_277
*556 FILLER_20_289
*557 FILLER_20_29
*558 FILLER_20_3
*559 FILLER_20_301
*560 FILLER_20_307
*561 FILLER_20_309
*562 FILLER_20_321
*563 FILLER_20_333
*564 FILLER_20_345
*565 FILLER_20_357
*566 FILLER_20_363
*567 FILLER_20_365
*568 FILLER_20_377
*569 FILLER_20_389
*570 FILLER_20_401
*571 FILLER_20_41
*572 FILLER_20_53
*573 FILLER_20_65
*574 FILLER_20_77
*575 FILLER_20_83
*576 FILLER_20_85
*577 FILLER_20_97
*578 FILLER_21_105
*579 FILLER_21_111
*580 FILLER_21_113
*581 FILLER_21_125
*582 FILLER_21_137
*583 FILLER_21_149
*584 FILLER_21_15
*585 FILLER_21_161
*586 FILLER_21_167
*587 FILLER_21_169
*588 FILLER_21_181
*589 FILLER_21_193
*590 FILLER_21_205
*591 FILLER_21_217
*592 FILLER_21_223
*593 FILLER_21_225
*594 FILLER_21_237
*595 FILLER_21_249
*596 FILLER_21_261
*597 FILLER_21_27
*598 FILLER_21_273
*599 FILLER_21_279
*600 FILLER_21_281
*601 FILLER_21_293
*602 FILLER_21_3
*603 FILLER_21_305
*604 FILLER_21_317
*605 FILLER_21_329
*606 FILLER_21_335
*607 FILLER_21_337
*608 FILLER_21_349
*609 FILLER_21_361
*610 FILLER_21_373
*611 FILLER_21_385
*612 FILLER_21_39
*613 FILLER_21_391
*614 FILLER_21_393
*615 FILLER_21_405
*616 FILLER_21_51
*617 FILLER_21_55
*618 FILLER_21_57
*619 FILLER_21_69
*620 FILLER_21_81
*621 FILLER_21_93
*622 FILLER_22_109
*623 FILLER_22_121
*624 FILLER_22_133
*625 FILLER_22_139
*626 FILLER_22_141
*627 FILLER_22_15
*628 FILLER_22_153
*629 FILLER_22_165
*630 FILLER_22_177
*631 FILLER_22_189
*632 FILLER_22_195
*633 FILLER_22_197
*634 FILLER_22_209
*635 FILLER_22_221
*636 FILLER_22_233
*637 FILLER_22_245
*638 FILLER_22_251
*639 FILLER_22_253
*640 FILLER_22_265
*641 FILLER_22_27
*642 FILLER_22_277
*643 FILLER_22_289
*644 FILLER_22_29
*645 FILLER_22_3
*646 FILLER_22_301
*647 FILLER_22_307
*648 FILLER_22_309
*649 FILLER_22_321
*650 FILLER_22_333
*651 FILLER_22_345
*652 FILLER_22_357
*653 FILLER_22_363
*654 FILLER_22_365
*655 FILLER_22_377
*656 FILLER_22_389
*657 FILLER_22_401
*658 FILLER_22_41
*659 FILLER_22_53
*660 FILLER_22_65
*661 FILLER_22_77
*662 FILLER_22_83
*663 FILLER_22_85
*664 FILLER_22_97
*665 FILLER_23_105
*666 FILLER_23_111
*667 FILLER_23_113
*668 FILLER_23_125
*669 FILLER_23_137
*670 FILLER_23_149
*671 FILLER_23_15
*672 FILLER_23_161
*673 FILLER_23_167
*674 FILLER_23_169
*675 FILLER_23_181
*676 FILLER_23_193
*677 FILLER_23_205
*678 FILLER_23_217
*679 FILLER_23_223
*680 FILLER_23_225
*681 FILLER_23_237
*682 FILLER_23_249
*683 FILLER_23_261
*684 FILLER_23_27
*685 FILLER_23_273
*686 FILLER_23_279
*687 FILLER_23_281
*688 FILLER_23_293
*689 FILLER_23_3
*690 FILLER_23_305
*691 FILLER_23_317
*692 FILLER_23_329
*693 FILLER_23_335
*694 FILLER_23_337
*695 FILLER_23_349
*696 FILLER_23_361
*697 FILLER_23_373
*698 FILLER_23_385
*699 FILLER_23_39
*700 FILLER_23_391
*701 FILLER_23_393
*702 FILLER_23_405
*703 FILLER_23_51
*704 FILLER_23_55
*705 FILLER_23_57
*706 FILLER_23_69
*707 FILLER_23_81
*708 FILLER_23_93
*709 FILLER_24_109
*710 FILLER_24_121
*711 FILLER_24_133
*712 FILLER_24_139
*713 FILLER_24_141
*714 FILLER_24_15
*715 FILLER_24_153
*716 FILLER_24_165
*717 FILLER_24_177
*718 FILLER_24_189
*719 FILLER_24_195
*720 FILLER_24_197
*721 FILLER_24_209
*722 FILLER_24_221
*723 FILLER_24_233
*724 FILLER_24_245
*725 FILLER_24_251
*726 FILLER_24_253
*727 FILLER_24_265
*728 FILLER_24_27
*729 FILLER_24_277
*730 FILLER_24_289
*731 FILLER_24_29
*732 FILLER_24_3
*733 FILLER_24_301
*734 FILLER_24_307
*735 FILLER_24_309
*736 FILLER_24_321
*737 FILLER_24_333
*738 FILLER_24_345
*739 FILLER_24_357
*740 FILLER_24_363
*741 FILLER_24_365
*742 FILLER_24_377
*743 FILLER_24_389
*744 FILLER_24_401
*745 FILLER_24_41
*746 FILLER_24_53
*747 FILLER_24_65
*748 FILLER_24_77
*749 FILLER_24_83
*750 FILLER_24_85
*751 FILLER_24_97
*752 FILLER_25_105
*753 FILLER_25_111
*754 FILLER_25_113
*755 FILLER_25_125
*756 FILLER_25_137
*757 FILLER_25_149
*758 FILLER_25_15
*759 FILLER_25_161
*760 FILLER_25_167
*761 FILLER_25_169
*762 FILLER_25_181
*763 FILLER_25_193
*764 FILLER_25_205
*765 FILLER_25_217
*766 FILLER_25_223
*767 FILLER_25_225
*768 FILLER_25_237
*769 FILLER_25_249
*770 FILLER_25_261
*771 FILLER_25_27
*772 FILLER_25_273
*773 FILLER_25_279
*774 FILLER_25_281
*775 FILLER_25_293
*776 FILLER_25_3
*777 FILLER_25_305
*778 FILLER_25_317
*779 FILLER_25_329
*780 FILLER_25_335
*781 FILLER_25_337
*782 FILLER_25_349
*783 FILLER_25_361
*784 FILLER_25_373
*785 FILLER_25_385
*786 FILLER_25_39
*787 FILLER_25_391
*788 FILLER_25_393
*789 FILLER_25_405
*790 FILLER_25_51
*791 FILLER_25_55
*792 FILLER_25_57
*793 FILLER_25_69
*794 FILLER_25_81
*795 FILLER_25_93
*796 FILLER_26_109
*797 FILLER_26_121
*798 FILLER_26_133
*799 FILLER_26_139
*800 FILLER_26_141
*801 FILLER_26_15
*802 FILLER_26_153
*803 FILLER_26_165
*804 FILLER_26_177
*805 FILLER_26_189
*806 FILLER_26_195
*807 FILLER_26_197
*808 FILLER_26_209
*809 FILLER_26_221
*810 FILLER_26_233
*811 FILLER_26_245
*812 FILLER_26_251
*813 FILLER_26_253
*814 FILLER_26_265
*815 FILLER_26_27
*816 FILLER_26_277
*817 FILLER_26_289
*818 FILLER_26_29
*819 FILLER_26_3
*820 FILLER_26_301
*821 FILLER_26_307
*822 FILLER_26_309
*823 FILLER_26_321
*824 FILLER_26_333
*825 FILLER_26_345
*826 FILLER_26_357
*827 FILLER_26_363
*828 FILLER_26_365
*829 FILLER_26_377
*830 FILLER_26_389
*831 FILLER_26_401
*832 FILLER_26_41
*833 FILLER_26_53
*834 FILLER_26_65
*835 FILLER_26_77
*836 FILLER_26_83
*837 FILLER_26_85
*838 FILLER_26_97
*839 FILLER_27_105
*840 FILLER_27_111
*841 FILLER_27_113
*842 FILLER_27_125
*843 FILLER_27_137
*844 FILLER_27_149
*845 FILLER_27_15
*846 FILLER_27_161
*847 FILLER_27_167
*848 FILLER_27_169
*849 FILLER_27_181
*850 FILLER_27_193
*851 FILLER_27_205
*852 FILLER_27_217
*853 FILLER_27_223
*854 FILLER_27_225
*855 FILLER_27_237
*856 FILLER_27_249
*857 FILLER_27_261
*858 FILLER_27_27
*859 FILLER_27_273
*860 FILLER_27_279
*861 FILLER_27_281
*862 FILLER_27_293
*863 FILLER_27_3
*864 FILLER_27_305
*865 FILLER_27_317
*866 FILLER_27_329
*867 FILLER_27_335
*868 FILLER_27_337
*869 FILLER_27_349
*870 FILLER_27_361
*871 FILLER_27_373
*872 FILLER_27_385
*873 FILLER_27_39
*874 FILLER_27_391
*875 FILLER_27_393
*876 FILLER_27_405
*877 FILLER_27_51
*878 FILLER_27_55
*879 FILLER_27_57
*880 FILLER_27_69
*881 FILLER_27_81
*882 FILLER_27_93
*883 FILLER_28_109
*884 FILLER_28_121
*885 FILLER_28_133
*886 FILLER_28_139
*887 FILLER_28_141
*888 FILLER_28_15
*889 FILLER_28_153
*890 FILLER_28_165
*891 FILLER_28_177
*892 FILLER_28_189
*893 FILLER_28_195
*894 FILLER_28_197
*895 FILLER_28_209
*896 FILLER_28_221
*897 FILLER_28_233
*898 FILLER_28_245
*899 FILLER_28_251
*900 FILLER_28_253
*901 FILLER_28_265
*902 FILLER_28_27
*903 FILLER_28_277
*904 FILLER_28_289
*905 FILLER_28_29
*906 FILLER_28_3
*907 FILLER_28_301
*908 FILLER_28_307
*909 FILLER_28_309
*910 FILLER_28_321
*911 FILLER_28_333
*912 FILLER_28_345
*913 FILLER_28_357
*914 FILLER_28_363
*915 FILLER_28_365
*916 FILLER_28_377
*917 FILLER_28_389
*918 FILLER_28_401
*919 FILLER_28_41
*920 FILLER_28_53
*921 FILLER_28_65
*922 FILLER_28_77
*923 FILLER_28_83
*924 FILLER_28_85
*925 FILLER_28_97
*926 FILLER_29_105
*927 FILLER_29_111
*928 FILLER_29_113
*929 FILLER_29_125
*930 FILLER_29_137
*931 FILLER_29_149
*932 FILLER_29_15
*933 FILLER_29_161
*934 FILLER_29_167
*935 FILLER_29_169
*936 FILLER_29_181
*937 FILLER_29_193
*938 FILLER_29_205
*939 FILLER_29_217
*940 FILLER_29_223
*941 FILLER_29_225
*942 FILLER_29_237
*943 FILLER_29_249
*944 FILLER_29_261
*945 FILLER_29_27
*946 FILLER_29_273
*947 FILLER_29_279
*948 FILLER_29_281
*949 FILLER_29_293
*950 FILLER_29_3
*951 FILLER_29_305
*952 FILLER_29_317
*953 FILLER_29_329
*954 FILLER_29_335
*955 FILLER_29_337
*956 FILLER_29_349
*957 FILLER_29_361
*958 FILLER_29_373
*959 FILLER_29_385
*960 FILLER_29_39
*961 FILLER_29_391
*962 FILLER_29_393
*963 FILLER_29_405
*964 FILLER_29_51
*965 FILLER_29_55
*966 FILLER_29_57
*967 FILLER_29_69
*968 FILLER_29_81
*969 FILLER_29_93
*970 FILLER_2_109
*971 FILLER_2_121
*972 FILLER_2_133
*973 FILLER_2_139
*974 FILLER_2_141
*975 FILLER_2_15
*976 FILLER_2_153
*977 FILLER_2_165
*978 FILLER_2_177
*979 FILLER_2_189
*980 FILLER_2_195
*981 FILLER_2_197
*982 FILLER_2_209
*983 FILLER_2_221
*984 FILLER_2_233
*985 FILLER_2_245
*986 FILLER_2_251
*987 FILLER_2_253
*988 FILLER_2_265
*989 FILLER_2_27
*990 FILLER_2_277
*991 FILLER_2_289
*992 FILLER_2_29
*993 FILLER_2_3
*994 FILLER_2_301
*995 FILLER_2_307
*996 FILLER_2_309
*997 FILLER_2_321
*998 FILLER_2_333
*999 FILLER_2_345
*1000 FILLER_2_357
*1001 FILLER_2_363
*1002 FILLER_2_365
*1003 FILLER_2_377
*1004 FILLER_2_389
*1005 FILLER_2_401
*1006 FILLER_2_41
*1007 FILLER_2_53
*1008 FILLER_2_65
*1009 FILLER_2_77
*1010 FILLER_2_83
*1011 FILLER_2_85
*1012 FILLER_2_97
*1013 FILLER_30_109
*1014 FILLER_30_121
*1015 FILLER_30_133
*1016 FILLER_30_139
*1017 FILLER_30_141
*1018 FILLER_30_15
*1019 FILLER_30_153
*1020 FILLER_30_165
*1021 FILLER_30_177
*1022 FILLER_30_189
*1023 FILLER_30_195
*1024 FILLER_30_197
*1025 FILLER_30_209
*1026 FILLER_30_221
*1027 FILLER_30_233
*1028 FILLER_30_245
*1029 FILLER_30_251
*1030 FILLER_30_253
*1031 FILLER_30_265
*1032 FILLER_30_27
*1033 FILLER_30_277
*1034 FILLER_30_289
*1035 FILLER_30_29
*1036 FILLER_30_3
*1037 FILLER_30_301
*1038 FILLER_30_307
*1039 FILLER_30_309
*1040 FILLER_30_321
*1041 FILLER_30_333
*1042 FILLER_30_345
*1043 FILLER_30_357
*1044 FILLER_30_363
*1045 FILLER_30_365
*1046 FILLER_30_377
*1047 FILLER_30_389
*1048 FILLER_30_401
*1049 FILLER_30_41
*1050 FILLER_30_53
*1051 FILLER_30_65
*1052 FILLER_30_77
*1053 FILLER_30_83
*1054 FILLER_30_85
*1055 FILLER_30_97
*1056 FILLER_31_105
*1057 FILLER_31_111
*1058 FILLER_31_113
*1059 FILLER_31_125
*1060 FILLER_31_137
*1061 FILLER_31_149
*1062 FILLER_31_15
*1063 FILLER_31_161
*1064 FILLER_31_167
*1065 FILLER_31_169
*1066 FILLER_31_181
*1067 FILLER_31_193
*1068 FILLER_31_205
*1069 FILLER_31_217
*1070 FILLER_31_223
*1071 FILLER_31_225
*1072 FILLER_31_237
*1073 FILLER_31_249
*1074 FILLER_31_261
*1075 FILLER_31_27
*1076 FILLER_31_273
*1077 FILLER_31_279
*1078 FILLER_31_281
*1079 FILLER_31_293
*1080 FILLER_31_3
*1081 FILLER_31_305
*1082 FILLER_31_317
*1083 FILLER_31_329
*1084 FILLER_31_335
*1085 FILLER_31_337
*1086 FILLER_31_349
*1087 FILLER_31_361
*1088 FILLER_31_373
*1089 FILLER_31_385
*1090 FILLER_31_39
*1091 FILLER_31_391
*1092 FILLER_31_393
*1093 FILLER_31_405
*1094 FILLER_31_51
*1095 FILLER_31_55
*1096 FILLER_31_57
*1097 FILLER_31_69
*1098 FILLER_31_81
*1099 FILLER_31_93
*1100 FILLER_32_109
*1101 FILLER_32_121
*1102 FILLER_32_133
*1103 FILLER_32_139
*1104 FILLER_32_141
*1105 FILLER_32_15
*1106 FILLER_32_153
*1107 FILLER_32_165
*1108 FILLER_32_177
*1109 FILLER_32_189
*1110 FILLER_32_195
*1111 FILLER_32_197
*1112 FILLER_32_209
*1113 FILLER_32_221
*1114 FILLER_32_233
*1115 FILLER_32_245
*1116 FILLER_32_251
*1117 FILLER_32_253
*1118 FILLER_32_265
*1119 FILLER_32_27
*1120 FILLER_32_277
*1121 FILLER_32_289
*1122 FILLER_32_29
*1123 FILLER_32_3
*1124 FILLER_32_301
*1125 FILLER_32_307
*1126 FILLER_32_309
*1127 FILLER_32_321
*1128 FILLER_32_333
*1129 FILLER_32_345
*1130 FILLER_32_357
*1131 FILLER_32_363
*1132 FILLER_32_365
*1133 FILLER_32_377
*1134 FILLER_32_389
*1135 FILLER_32_401
*1136 FILLER_32_41
*1137 FILLER_32_53
*1138 FILLER_32_65
*1139 FILLER_32_77
*1140 FILLER_32_83
*1141 FILLER_32_85
*1142 FILLER_32_97
*1143 FILLER_33_105
*1144 FILLER_33_111
*1145 FILLER_33_113
*1146 FILLER_33_125
*1147 FILLER_33_137
*1148 FILLER_33_149
*1149 FILLER_33_15
*1150 FILLER_33_161
*1151 FILLER_33_167
*1152 FILLER_33_169
*1153 FILLER_33_181
*1154 FILLER_33_193
*1155 FILLER_33_205
*1156 FILLER_33_217
*1157 FILLER_33_223
*1158 FILLER_33_225
*1159 FILLER_33_237
*1160 FILLER_33_249
*1161 FILLER_33_261
*1162 FILLER_33_27
*1163 FILLER_33_273
*1164 FILLER_33_279
*1165 FILLER_33_281
*1166 FILLER_33_293
*1167 FILLER_33_3
*1168 FILLER_33_305
*1169 FILLER_33_317
*1170 FILLER_33_329
*1171 FILLER_33_335
*1172 FILLER_33_337
*1173 FILLER_33_349
*1174 FILLER_33_361
*1175 FILLER_33_373
*1176 FILLER_33_385
*1177 FILLER_33_39
*1178 FILLER_33_391
*1179 FILLER_33_393
*1180 FILLER_33_405
*1181 FILLER_33_51
*1182 FILLER_33_55
*1183 FILLER_33_57
*1184 FILLER_33_69
*1185 FILLER_33_81
*1186 FILLER_33_93
*1187 FILLER_34_109
*1188 FILLER_34_121
*1189 FILLER_34_133
*1190 FILLER_34_139
*1191 FILLER_34_141
*1192 FILLER_34_15
*1193 FILLER_34_153
*1194 FILLER_34_165
*1195 FILLER_34_177
*1196 FILLER_34_189
*1197 FILLER_34_195
*1198 FILLER_34_197
*1199 FILLER_34_209
*1200 FILLER_34_221
*1201 FILLER_34_233
*1202 FILLER_34_245
*1203 FILLER_34_251
*1204 FILLER_34_253
*1205 FILLER_34_265
*1206 FILLER_34_27
*1207 FILLER_34_277
*1208 FILLER_34_289
*1209 FILLER_34_29
*1210 FILLER_34_3
*1211 FILLER_34_301
*1212 FILLER_34_307
*1213 FILLER_34_309
*1214 FILLER_34_321
*1215 FILLER_34_333
*1216 FILLER_34_345
*1217 FILLER_34_357
*1218 FILLER_34_363
*1219 FILLER_34_365
*1220 FILLER_34_377
*1221 FILLER_34_389
*1222 FILLER_34_401
*1223 FILLER_34_41
*1224 FILLER_34_53
*1225 FILLER_34_65
*1226 FILLER_34_77
*1227 FILLER_34_83
*1228 FILLER_34_85
*1229 FILLER_34_97
*1230 FILLER_35_105
*1231 FILLER_35_111
*1232 FILLER_35_113
*1233 FILLER_35_125
*1234 FILLER_35_137
*1235 FILLER_35_149
*1236 FILLER_35_15
*1237 FILLER_35_161
*1238 FILLER_35_167
*1239 FILLER_35_169
*1240 FILLER_35_181
*1241 FILLER_35_193
*1242 FILLER_35_205
*1243 FILLER_35_217
*1244 FILLER_35_223
*1245 FILLER_35_225
*1246 FILLER_35_237
*1247 FILLER_35_249
*1248 FILLER_35_261
*1249 FILLER_35_27
*1250 FILLER_35_273
*1251 FILLER_35_279
*1252 FILLER_35_281
*1253 FILLER_35_293
*1254 FILLER_35_3
*1255 FILLER_35_305
*1256 FILLER_35_317
*1257 FILLER_35_329
*1258 FILLER_35_335
*1259 FILLER_35_337
*1260 FILLER_35_349
*1261 FILLER_35_361
*1262 FILLER_35_373
*1263 FILLER_35_385
*1264 FILLER_35_39
*1265 FILLER_35_391
*1266 FILLER_35_393
*1267 FILLER_35_405
*1268 FILLER_35_51
*1269 FILLER_35_55
*1270 FILLER_35_57
*1271 FILLER_35_69
*1272 FILLER_35_81
*1273 FILLER_35_93
*1274 FILLER_36_109
*1275 FILLER_36_121
*1276 FILLER_36_133
*1277 FILLER_36_139
*1278 FILLER_36_141
*1279 FILLER_36_15
*1280 FILLER_36_153
*1281 FILLER_36_165
*1282 FILLER_36_177
*1283 FILLER_36_189
*1284 FILLER_36_195
*1285 FILLER_36_197
*1286 FILLER_36_209
*1287 FILLER_36_221
*1288 FILLER_36_233
*1289 FILLER_36_245
*1290 FILLER_36_251
*1291 FILLER_36_253
*1292 FILLER_36_265
*1293 FILLER_36_27
*1294 FILLER_36_277
*1295 FILLER_36_289
*1296 FILLER_36_29
*1297 FILLER_36_3
*1298 FILLER_36_301
*1299 FILLER_36_307
*1300 FILLER_36_309
*1301 FILLER_36_321
*1302 FILLER_36_333
*1303 FILLER_36_345
*1304 FILLER_36_357
*1305 FILLER_36_363
*1306 FILLER_36_365
*1307 FILLER_36_377
*1308 FILLER_36_389
*1309 FILLER_36_401
*1310 FILLER_36_41
*1311 FILLER_36_53
*1312 FILLER_36_65
*1313 FILLER_36_77
*1314 FILLER_36_83
*1315 FILLER_36_85
*1316 FILLER_36_97
*1317 FILLER_37_105
*1318 FILLER_37_111
*1319 FILLER_37_113
*1320 FILLER_37_125
*1321 FILLER_37_137
*1322 FILLER_37_149
*1323 FILLER_37_15
*1324 FILLER_37_161
*1325 FILLER_37_167
*1326 FILLER_37_169
*1327 FILLER_37_181
*1328 FILLER_37_193
*1329 FILLER_37_205
*1330 FILLER_37_217
*1331 FILLER_37_223
*1332 FILLER_37_225
*1333 FILLER_37_237
*1334 FILLER_37_249
*1335 FILLER_37_261
*1336 FILLER_37_27
*1337 FILLER_37_273
*1338 FILLER_37_279
*1339 FILLER_37_281
*1340 FILLER_37_293
*1341 FILLER_37_3
*1342 FILLER_37_305
*1343 FILLER_37_317
*1344 FILLER_37_329
*1345 FILLER_37_335
*1346 FILLER_37_337
*1347 FILLER_37_349
*1348 FILLER_37_361
*1349 FILLER_37_373
*1350 FILLER_37_385
*1351 FILLER_37_39
*1352 FILLER_37_391
*1353 FILLER_37_393
*1354 FILLER_37_405
*1355 FILLER_37_51
*1356 FILLER_37_55
*1357 FILLER_37_57
*1358 FILLER_37_69
*1359 FILLER_37_81
*1360 FILLER_37_93
*1361 FILLER_38_109
*1362 FILLER_38_121
*1363 FILLER_38_133
*1364 FILLER_38_139
*1365 FILLER_38_141
*1366 FILLER_38_15
*1367 FILLER_38_153
*1368 FILLER_38_165
*1369 FILLER_38_177
*1370 FILLER_38_189
*1371 FILLER_38_195
*1372 FILLER_38_197
*1373 FILLER_38_209
*1374 FILLER_38_221
*1375 FILLER_38_233
*1376 FILLER_38_245
*1377 FILLER_38_251
*1378 FILLER_38_253
*1379 FILLER_38_265
*1380 FILLER_38_27
*1381 FILLER_38_277
*1382 FILLER_38_289
*1383 FILLER_38_29
*1384 FILLER_38_3
*1385 FILLER_38_301
*1386 FILLER_38_307
*1387 FILLER_38_309
*1388 FILLER_38_321
*1389 FILLER_38_333
*1390 FILLER_38_345
*1391 FILLER_38_357
*1392 FILLER_38_363
*1393 FILLER_38_365
*1394 FILLER_38_377
*1395 FILLER_38_389
*1396 FILLER_38_401
*1397 FILLER_38_41
*1398 FILLER_38_53
*1399 FILLER_38_65
*1400 FILLER_38_77
*1401 FILLER_38_83
*1402 FILLER_38_85
*1403 FILLER_38_97
*1404 FILLER_39_105
*1405 FILLER_39_111
*1406 FILLER_39_113
*1407 FILLER_39_125
*1408 FILLER_39_137
*1409 FILLER_39_149
*1410 FILLER_39_15
*1411 FILLER_39_161
*1412 FILLER_39_167
*1413 FILLER_39_169
*1414 FILLER_39_181
*1415 FILLER_39_193
*1416 FILLER_39_205
*1417 FILLER_39_217
*1418 FILLER_39_223
*1419 FILLER_39_225
*1420 FILLER_39_237
*1421 FILLER_39_249
*1422 FILLER_39_261
*1423 FILLER_39_27
*1424 FILLER_39_273
*1425 FILLER_39_279
*1426 FILLER_39_281
*1427 FILLER_39_293
*1428 FILLER_39_3
*1429 FILLER_39_305
*1430 FILLER_39_317
*1431 FILLER_39_329
*1432 FILLER_39_335
*1433 FILLER_39_337
*1434 FILLER_39_349
*1435 FILLER_39_361
*1436 FILLER_39_373
*1437 FILLER_39_385
*1438 FILLER_39_39
*1439 FILLER_39_391
*1440 FILLER_39_393
*1441 FILLER_39_405
*1442 FILLER_39_51
*1443 FILLER_39_55
*1444 FILLER_39_57
*1445 FILLER_39_69
*1446 FILLER_39_81
*1447 FILLER_39_93
*1448 FILLER_3_105
*1449 FILLER_3_111
*1450 FILLER_3_113
*1451 FILLER_3_125
*1452 FILLER_3_137
*1453 FILLER_3_149
*1454 FILLER_3_15
*1455 FILLER_3_161
*1456 FILLER_3_167
*1457 FILLER_3_169
*1458 FILLER_3_181
*1459 FILLER_3_193
*1460 FILLER_3_205
*1461 FILLER_3_217
*1462 FILLER_3_223
*1463 FILLER_3_225
*1464 FILLER_3_237
*1465 FILLER_3_249
*1466 FILLER_3_261
*1467 FILLER_3_27
*1468 FILLER_3_273
*1469 FILLER_3_279
*1470 FILLER_3_281
*1471 FILLER_3_293
*1472 FILLER_3_3
*1473 FILLER_3_305
*1474 FILLER_3_317
*1475 FILLER_3_329
*1476 FILLER_3_335
*1477 FILLER_3_337
*1478 FILLER_3_349
*1479 FILLER_3_361
*1480 FILLER_3_373
*1481 FILLER_3_385
*1482 FILLER_3_39
*1483 FILLER_3_391
*1484 FILLER_3_393
*1485 FILLER_3_405
*1486 FILLER_3_51
*1487 FILLER_3_55
*1488 FILLER_3_57
*1489 FILLER_3_69
*1490 FILLER_3_81
*1491 FILLER_3_93
*1492 FILLER_40_109
*1493 FILLER_40_121
*1494 FILLER_40_133
*1495 FILLER_40_139
*1496 FILLER_40_141
*1497 FILLER_40_15
*1498 FILLER_40_153
*1499 FILLER_40_165
*1500 FILLER_40_177
*1501 FILLER_40_189
*1502 FILLER_40_195
*1503 FILLER_40_197
*1504 FILLER_40_209
*1505 FILLER_40_221
*1506 FILLER_40_233
*1507 FILLER_40_245
*1508 FILLER_40_251
*1509 FILLER_40_253
*1510 FILLER_40_265
*1511 FILLER_40_27
*1512 FILLER_40_277
*1513 FILLER_40_289
*1514 FILLER_40_29
*1515 FILLER_40_3
*1516 FILLER_40_301
*1517 FILLER_40_307
*1518 FILLER_40_309
*1519 FILLER_40_321
*1520 FILLER_40_333
*1521 FILLER_40_345
*1522 FILLER_40_357
*1523 FILLER_40_363
*1524 FILLER_40_365
*1525 FILLER_40_377
*1526 FILLER_40_389
*1527 FILLER_40_401
*1528 FILLER_40_41
*1529 FILLER_40_53
*1530 FILLER_40_65
*1531 FILLER_40_77
*1532 FILLER_40_83
*1533 FILLER_40_85
*1534 FILLER_40_97
*1535 FILLER_41_105
*1536 FILLER_41_111
*1537 FILLER_41_113
*1538 FILLER_41_125
*1539 FILLER_41_137
*1540 FILLER_41_149
*1541 FILLER_41_15
*1542 FILLER_41_161
*1543 FILLER_41_167
*1544 FILLER_41_169
*1545 FILLER_41_181
*1546 FILLER_41_193
*1547 FILLER_41_205
*1548 FILLER_41_217
*1549 FILLER_41_223
*1550 FILLER_41_225
*1551 FILLER_41_237
*1552 FILLER_41_249
*1553 FILLER_41_261
*1554 FILLER_41_27
*1555 FILLER_41_273
*1556 FILLER_41_279
*1557 FILLER_41_281
*1558 FILLER_41_293
*1559 FILLER_41_3
*1560 FILLER_41_305
*1561 FILLER_41_317
*1562 FILLER_41_329
*1563 FILLER_41_335
*1564 FILLER_41_337
*1565 FILLER_41_349
*1566 FILLER_41_361
*1567 FILLER_41_373
*1568 FILLER_41_385
*1569 FILLER_41_39
*1570 FILLER_41_391
*1571 FILLER_41_393
*1572 FILLER_41_405
*1573 FILLER_41_51
*1574 FILLER_41_55
*1575 FILLER_41_57