*SPEF "ieee 1481-1999"
*DESIGN "top_cw_logic"
*DATE "11:11:11 Fri 11 11, 1111"
*VENDOR "OpenRCX"
*PROGRAM "Parallel Extraction"
*VERSION "1.0"
*DESIGN_FLOW "NAME_SCOPE LOCAL" "PIN_CAP NONE"
*DIVIDER /
*DELIMITER :
*BUS_DELIMITER []
*T_UNIT 1 NS
*C_UNIT 1 PF
*R_UNIT 1 OHM
*L_UNIT 1 HENRY

*NAME_MAP
*1 c_wb_4_burst
*2 c_wb_8_burst
*3 c_wb_ack_cmp
*4 c_wb_adr[0]
*5 c_wb_adr[10]
*6 c_wb_adr[11]
*7 c_wb_adr[12]
*8 c_wb_adr[13]
*9 c_wb_adr[14]
*10 c_wb_adr[15]
*11 c_wb_adr[16]
*12 c_wb_adr[17]
*13 c_wb_adr[18]
*14 c_wb_adr[19]
*15 c_wb_adr[1]
*16 c_wb_adr[20]
*17 c_wb_adr[21]
*18 c_wb_adr[22]
*19 c_wb_adr[23]
*20 c_wb_adr[2]
*21 c_wb_adr[3]
*22 c_wb_adr[4]
*23 c_wb_adr[5]
*24 c_wb_adr[6]
*25 c_wb_adr[7]
*26 c_wb_adr[8]
*27 c_wb_adr[9]
*28 c_wb_cyc
*29 c_wb_err_cmp
*30 c_wb_i_dat_cmp[0]
*31 c_wb_i_dat_cmp[10]
*32 c_wb_i_dat_cmp[11]
*33 c_wb_i_dat_cmp[12]
*34 c_wb_i_dat_cmp[13]
*35 c_wb_i_dat_cmp[14]
*36 c_wb_i_dat_cmp[15]
*37 c_wb_i_dat_cmp[1]
*38 c_wb_i_dat_cmp[2]
*39 c_wb_i_dat_cmp[3]
*40 c_wb_i_dat_cmp[4]
*41 c_wb_i_dat_cmp[5]
*42 c_wb_i_dat_cmp[6]
*43 c_wb_i_dat_cmp[7]
*44 c_wb_i_dat_cmp[8]
*45 c_wb_i_dat_cmp[9]
*46 c_wb_o_dat[0]
*47 c_wb_o_dat[10]
*48 c_wb_o_dat[11]
*49 c_wb_o_dat[12]
*50 c_wb_o_dat[13]
*51 c_wb_o_dat[14]
*52 c_wb_o_dat[15]
*53 c_wb_o_dat[1]
*54 c_wb_o_dat[2]
*55 c_wb_o_dat[3]
*56 c_wb_o_dat[4]
*57 c_wb_o_dat[5]
*58 c_wb_o_dat[6]
*59 c_wb_o_dat[7]
*60 c_wb_o_dat[8]
*61 c_wb_o_dat[9]
*62 c_wb_sel[0]
*63 c_wb_sel[1]
*64 c_wb_stb
*65 c_wb_we
*66 cc_wb_4_burst
*67 cc_wb_8_burst
*68 cc_wb_adr[0]
*69 cc_wb_adr[10]
*70 cc_wb_adr[11]
*71 cc_wb_adr[12]
*72 cc_wb_adr[13]
*73 cc_wb_adr[14]
*74 cc_wb_adr[15]
*75 cc_wb_adr[16]
*76 cc_wb_adr[17]
*77 cc_wb_adr[18]
*78 cc_wb_adr[19]
*79 cc_wb_adr[1]
*80 cc_wb_adr[20]
*81 cc_wb_adr[21]
*82 cc_wb_adr[22]
*83 cc_wb_adr[23]
*84 cc_wb_adr[2]
*85 cc_wb_adr[3]
*86 cc_wb_adr[4]
*87 cc_wb_adr[5]
*88 cc_wb_adr[6]
*89 cc_wb_adr[7]
*90 cc_wb_adr[8]
*91 cc_wb_adr[9]
*92 cc_wb_cyc
*93 cc_wb_o_dat[0]
*94 cc_wb_o_dat[10]
*95 cc_wb_o_dat[11]
*96 cc_wb_o_dat[12]
*97 cc_wb_o_dat[13]
*98 cc_wb_o_dat[14]
*99 cc_wb_o_dat[15]
*100 cc_wb_o_dat[1]
*101 cc_wb_o_dat[2]
*102 cc_wb_o_dat[3]
*103 cc_wb_o_dat[4]
*104 cc_wb_o_dat[5]
*105 cc_wb_o_dat[6]
*106 cc_wb_o_dat[7]
*107 cc_wb_o_dat[8]
*108 cc_wb_o_dat[9]
*109 cc_wb_sel[0]
*110 cc_wb_sel[1]
*111 cc_wb_stb
*112 cc_wb_we
*113 cw_ack
*114 cw_clk
*115 cw_err
*116 cw_io_i[0]
*117 cw_io_i[10]
*118 cw_io_i[11]
*119 cw_io_i[12]
*120 cw_io_i[13]
*121 cw_io_i[14]
*122 cw_io_i[15]
*123 cw_io_i[1]
*124 cw_io_i[2]
*125 cw_io_i[3]
*126 cw_io_i[4]
*127 cw_io_i[5]
*128 cw_io_i[6]
*129 cw_io_i[7]
*130 cw_io_i[8]
*131 cw_io_i[9]
*132 cw_rst
*133 cw_rst_z
*134 i_clk
*135 i_irq
*136 i_rst
*137 ic_split_clock
*138 irq_s
*139 la_cw_ack
*140 la_cw_io_i[0]
*141 la_cw_io_i[10]
*142 la_cw_io_i[11]
*143 la_cw_io_i[12]
*144 la_cw_io_i[13]
*145 la_cw_io_i[14]
*146 la_cw_io_i[15]
*147 la_cw_io_i[1]
*148 la_cw_io_i[2]
*149 la_cw_io_i[3]
*150 la_cw_io_i[4]
*151 la_cw_io_i[5]
*152 la_cw_io_i[6]
*153 la_cw_io_i[7]
*154 la_cw_io_i[8]
*155 la_cw_io_i[9]
*156 la_cw_ovr
*157 m_cw_ack
*158 m_cw_err
*159 m_cw_io_i[0]
*160 m_cw_io_i[10]
*161 m_cw_io_i[11]
*162 m_cw_io_i[12]
*163 m_cw_io_i[13]
*164 m_cw_io_i[14]
*165 m_cw_io_i[15]
*166 m_cw_io_i[1]
*167 m_cw_io_i[2]
*168 m_cw_io_i[3]
*169 m_cw_io_i[4]
*170 m_cw_io_i[5]
*171 m_cw_io_i[6]
*172 m_cw_io_i[7]
*173 m_cw_io_i[8]
*174 m_cw_io_i[9]
*175 s_rst
*176 u_wb_4_burst
*177 u_wb_8_burst
*178 u_wb_ack
*179 u_wb_ack_cc
*180 u_wb_ack_clk
*181 u_wb_ack_mxed
*182 u_wb_adr[0]
*183 u_wb_adr[10]
*184 u_wb_adr[11]
*185 u_wb_adr[12]
*186 u_wb_adr[13]
*187 u_wb_adr[14]
*188 u_wb_adr[15]
*189 u_wb_adr[16]
*190 u_wb_adr[17]
*191 u_wb_adr[18]
*192 u_wb_adr[19]
*193 u_wb_adr[1]
*194 u_wb_adr[20]
*195 u_wb_adr[21]
*196 u_wb_adr[22]
*197 u_wb_adr[23]
*198 u_wb_adr[2]
*199 u_wb_adr[3]
*200 u_wb_adr[4]
*201 u_wb_adr[5]
*202 u_wb_adr[6]
*203 u_wb_adr[7]
*204 u_wb_adr[8]
*205 u_wb_adr[9]
*206 u_wb_cyc
*207 u_wb_err
*208 u_wb_err_cc
*209 u_wb_i_dat[0]
*210 u_wb_i_dat[10]
*211 u_wb_i_dat[11]
*212 u_wb_i_dat[12]
*213 u_wb_i_dat[13]
*214 u_wb_i_dat[14]
*215 u_wb_i_dat[15]
*216 u_wb_i_dat[1]
*217 u_wb_i_dat[2]
*218 u_wb_i_dat[3]
*219 u_wb_i_dat[4]
*220 u_wb_i_dat[5]
*221 u_wb_i_dat[6]
*222 u_wb_i_dat[7]
*223 u_wb_i_dat[8]
*224 u_wb_i_dat[9]
*225 u_wb_i_dat_cc[0]
*226 u_wb_i_dat_cc[10]
*227 u_wb_i_dat_cc[11]
*228 u_wb_i_dat_cc[12]
*229 u_wb_i_dat_cc[13]
*230 u_wb_i_dat_cc[14]
*231 u_wb_i_dat_cc[15]
*232 u_wb_i_dat_cc[1]
*233 u_wb_i_dat_cc[2]
*234 u_wb_i_dat_cc[3]
*235 u_wb_i_dat_cc[4]
*236 u_wb_i_dat_cc[5]
*237 u_wb_i_dat_cc[6]
*238 u_wb_i_dat_cc[7]
*239 u_wb_i_dat_cc[8]
*240 u_wb_i_dat_cc[9]
*241 u_wb_o_dat[0]
*242 u_wb_o_dat[10]
*243 u_wb_o_dat[11]
*244 u_wb_o_dat[12]
*245 u_wb_o_dat[13]
*246 u_wb_o_dat[14]
*247 u_wb_o_dat[15]
*248 u_wb_o_dat[1]
*249 u_wb_o_dat[2]
*250 u_wb_o_dat[3]
*251 u_wb_o_dat[4]
*252 u_wb_o_dat[5]
*253 u_wb_o_dat[6]
*254 u_wb_o_dat[7]
*255 u_wb_o_dat[8]
*256 u_wb_o_dat[9]
*257 u_wb_sel[0]
*258 u_wb_sel[1]
*259 u_wb_stb
*260 u_wb_we
*263 _000_
*264 _001_
*265 _002_
*266 _003_
*267 _004_
*268 _005_
*269 _006_
*270 _007_
*271 _008_
*272 _009_
*273 _010_
*274 _011_
*275 _012_
*276 _013_
*277 _014_
*278 _015_
*279 _016_
*280 _017_
*281 _018_
*282 _019_
*283 _020_
*284 _021_
*285 _022_
*286 _023_
*287 _024_
*288 _025_
*289 _026_
*290 _027_
*291 _028_
*292 _029_
*293 _030_
*294 _031_
*295 _032_
*296 _033_
*297 _034_
*298 _035_
*299 _036_
*300 _037_
*301 _038_
*302 _039_
*303 _040_
*304 _041_
*305 _042_
*306 _043_
*307 _044_
*308 _045_
*309 _046_
*310 _047_
*311 _048_
*312 _049_
*313 _050_
*314 _051_
*315 _052_
*316 _053_
*317 _054_
*318 _055_
*319 _056_
*320 _057_
*321 _058_
*322 _059_
*323 _060_
*324 _061_
*325 _062_
*326 _063_
*327 _064_
*328 _065_
*329 _066_
*330 _067_
*331 _068_
*332 _069_
*333 _070_
*334 _071_
*335 _072_
*336 _073_
*337 _074_
*338 _075_
*339 _076_
*340 _077_
*341 _078_
*342 _079_
*343 _080_
*344 _081_
*345 _082_
*346 _083_
*347 _084_
*348 _085_
*349 _086_
*350 _087_
*351 _088_
*352 _089_
*353 _090_
*354 _091_
*355 _092_
*356 _093_
*357 _094_
*358 _095_
*359 _096_
*360 _097_
*361 _098_
*362 _099_
*363 _100_
*364 _101_
*365 _102_
*366 _103_
*367 _104_
*368 _105_
*369 _106_
*370 clknet_0_i_clk
*371 clknet_1_0__leaf_i_clk
*372 clknet_1_1__leaf_i_clk
*373 irq_s_ff\[0\]
*374 net1
*375 net10
*376 net100
*377 net101
*378 net102
*379 net103
*380 net104
*381 net105
*382 net106
*383 net107
*384 net108
*385 net109
*386 net11
*387 net110
*388 net111
*389 net112
*390 net113
*391 net114
*392 net115
*393 net116
*394 net117
*395 net118
*396 net119
*397 net12
*398 net120
*399 net121
*400 net122
*401 net123
*402 net124
*403 net125
*404 net126
*405 net127
*406 net128
*407 net129
*408 net13
*409 net130
*410 net131
*411 net132
*412 net133
*413 net134
*414 net135
*415 net136
*416 net137
*417 net138
*418 net139
*419 net14
*420 net140
*421 net141
*422 net142
*423 net143
*424 net144
*425 net145
*426 net146
*427 net147
*428 net148
*429 net149
*430 net15
*431 net150
*432 net151
*433 net152
*434 net153
*435 net154
*436 net155
*437 net156
*438 net157
*439 net158
*440 net159
*441 net16
*442 net160
*443 net161
*444 net162
*445 net163
*446 net164
*447 net165
*448 net166
*449 net167
*450 net168
*451 net169
*452 net17
*453 net170
*454 net171
*455 net172
*456 net173
*457 net174
*458 net175
*459 net176
*460 net177
*461 net178
*462 net179
*463 net18
*464 net180
*465 net181
*466 net182
*467 net183
*468 net184
*469 net185
*470 net186
*471 net187
*472 net188
*473 net189
*474 net19
*475 net190
*476 net191
*477 net192
*478 net193
*479 net194
*480 net195
*481 net196
*482 net197
*483 net198
*484 net199
*485 net2
*486 net20
*487 net200
*488 net201
*489 net202
*490 net203
*491 net204
*492 net205
*493 net206
*494 net207
*495 net208
*496 net209
*497 net21
*498 net210
*499 net211
*500 net212
*501 net213
*502 net214
*503 net215
*504 net216
*505 net217
*506 net218
*507 net219
*508 net22
*509 net220
*510 net221
*511 net222
*512 net223
*513 net224
*514 net225
*515 net226
*516 net227
*517 net228
*518 net229
*519 net23
*520 net230
*521 net231
*522 net232
*523 net233
*524 net234
*525 net235
*526 net236
*527 net237
*528 net238
*529 net239
*530 net24
*531 net240
*532 net241
*533 net242
*534 net243
*535 net244
*536 net245
*537 net246
*538 net247
*539 net248
*540 net249
*541 net25
*542 net250
*543 net251
*544 net252
*545 net253
*546 net254
*547 net255
*548 net256
*549 net257
*550 net258
*551 net259
*552 net26
*553 net260
*554 net261
*555 net262
*556 net27
*557 net28
*558 net29
*559 net3
*560 net30
*561 net31
*562 net32
*563 net33
*564 net34
*565 net35
*566 net36
*567 net37
*568 net38
*569 net39
*570 net4
*571 net40
*572 net41
*573 net42
*574 net43
*575 net44
*576 net45
*577 net46
*578 net47
*579 net48
*580 net49
*581 net5
*582 net50
*583 net51
*584 net52
*585 net53
*586 net54
*587 net55
*588 net56
*589 net57
*590 net58
*591 net59
*592 net6
*593 net60
*594 net61
*595 net62
*596 net63
*597 net64
*598 net65
*599 net66
*600 net67
*601 net68
*602 net69
*603 net7
*604 net70
*605 net71
*606 net72
*607 net73
*608 net74
*609 net75
*610 net76
*611 net77
*612 net78
*613 net79
*614 net8
*615 net80
*616 net81
*617 net82
*618 net83
*619 net84
*620 net85
*621 net86
*622 net87
*623 net88
*624 net89
*625 net9
*626 net90
*627 net91
*628 net92
*629 net93
*630 net94
*631 net95
*632 net96
*633 net97
*634 net98
*635 net99
*636 rst_clk_sync\.reset_sync_ff\[0\]
*637 rst_cw_sync\.reset_sync_ff\[0\]
*638 ANTENNA__109__A
*639 ANTENNA__110__A
*640 ANTENNA__111__A0
*641 ANTENNA__111__A1
*642 ANTENNA__111__S
*643 ANTENNA__113__A1
*644 ANTENNA__113__S
*645 ANTENNA__115__A0
*646 ANTENNA__115__A1
*647 ANTENNA__115__S
*648 ANTENNA__117__A1
*649 ANTENNA__117__S
*650 ANTENNA__119__A0
*651 ANTENNA__119__S
*652 ANTENNA__121__S
*653 ANTENNA__123__A0
*654 ANTENNA__123__S
*655 ANTENNA__125__A0
*656 ANTENNA__125__S
*657 ANTENNA__127__A1
*658 ANTENNA__127__S
*659 ANTENNA__129__A0
*660 ANTENNA__129__A1
*661 ANTENNA__129__S
*662 ANTENNA__131__A
*663 ANTENNA__132__A1
*664 ANTENNA__132__S
*665 ANTENNA__134__S
*666 ANTENNA__136__S
*667 ANTENNA__138__S
*668 ANTENNA__140__A0
*669 ANTENNA__140__S
*670 ANTENNA__142__S
*671 ANTENNA__144__S
*672 ANTENNA__146__A1
*673 ANTENNA__146__S
*674 ANTENNA__148__A0
*675 ANTENNA__148__S
*676 ANTENNA__150__A0
*677 ANTENNA__150__A1
*678 ANTENNA__150__S
*679 ANTENNA__152__A
*680 ANTENNA__153__A0
*681 ANTENNA__153__A1
*682 ANTENNA__153__S
*683 ANTENNA__155__A0
*684 ANTENNA__155__A1
*685 ANTENNA__155__S
*686 ANTENNA__157__A0
*687 ANTENNA__157__S
*688 ANTENNA__159__A0
*689 ANTENNA__159__A1
*690 ANTENNA__159__S
*691 ANTENNA__161__A0
*692 ANTENNA__161__A1
*693 ANTENNA__161__S
*694 ANTENNA__163__A0
*695 ANTENNA__163__A1
*696 ANTENNA__163__S
*697 ANTENNA__165__A1
*698 ANTENNA__165__S
*699 ANTENNA__167__A0
*700 ANTENNA__167__A1
*701 ANTENNA__167__S
*702 ANTENNA__169__A0
*703 ANTENNA__169__A1
*704 ANTENNA__169__S
*705 ANTENNA__171__A0
*706 ANTENNA__171__A1
*707 ANTENNA__171__S
*708 ANTENNA__173__A
*709 ANTENNA__174__A0
*710 ANTENNA__174__A1
*711 ANTENNA__174__S
*712 ANTENNA__176__A0
*713 ANTENNA__176__A1
*714 ANTENNA__176__S
*715 ANTENNA__178__A0
*716 ANTENNA__178__A1
*717 ANTENNA__178__S
*718 ANTENNA__180__A0
*719 ANTENNA__180__A1
*720 ANTENNA__180__S
*721 ANTENNA__182__A0
*722 ANTENNA__182__A1
*723 ANTENNA__182__S
*724 ANTENNA__184__A0
*725 ANTENNA__184__S
*726 ANTENNA__186__A0
*727 ANTENNA__186__A1
*728 ANTENNA__186__S
*729 ANTENNA__188__A0
*730 ANTENNA__188__A1
*731 ANTENNA__188__S
*732 ANTENNA__190__A0
*733 ANTENNA__190__A1
*734 ANTENNA__190__S
*735 ANTENNA__192__A0
*736 ANTENNA__192__A1
*737 ANTENNA__192__S
*738 ANTENNA__194__A
*739 ANTENNA__195__A0
*740 ANTENNA__195__S
*741 ANTENNA__197__A0
*742 ANTENNA__197__A1
*743 ANTENNA__197__S
*744 ANTENNA__199__A0
*745 ANTENNA__199__A1
*746 ANTENNA__199__S
*747 ANTENNA__201__A0
*748 ANTENNA__201__A1
*749 ANTENNA__201__S
*750 ANTENNA__203__A0
*751 ANTENNA__203__A1
*752 ANTENNA__203__S
*753 ANTENNA__205__A1
*754 ANTENNA__205__S
*755 ANTENNA__207__A0
*756 ANTENNA__207__A1
*757 ANTENNA__207__S
*758 ANTENNA__209__A0
*759 ANTENNA__209__S
*760 ANTENNA__211__S
*761 ANTENNA__213__S
*762 ANTENNA__215__A0
*763 ANTENNA__215__S
*764 ANTENNA__217__A
*765 ANTENNA__218__S
*766 ANTENNA__220__A0
*767 ANTENNA__220__S
*768 ANTENNA__222__A0
*769 ANTENNA__222__S
*770 ANTENNA__224__S
*771 ANTENNA__226__A1
*772 ANTENNA__226__S
*773 ANTENNA__228__A0
*774 ANTENNA__228__S
*775 ANTENNA__230__S
*776 ANTENNA__232__S
*777 ANTENNA__234__S
*778 ANTENNA__236__A1
*779 ANTENNA__236__S
*780 ANTENNA__238__A1
*781 ANTENNA__238__S
*782 ANTENNA__240__A0
*783 ANTENNA__240__S
*784 ANTENNA__242__S
*785 ANTENNA__244__A
*786 ANTENNA__245__A0
*787 ANTENNA__245__A1
*788 ANTENNA__245__S
*789 ANTENNA__247__A0
*790 ANTENNA__247__S
*791 ANTENNA__249__A0
*792 ANTENNA__249__S
*793 ANTENNA__251__A0
*794 ANTENNA__251__S
*795 ANTENNA__253__A1
*796 ANTENNA__253__S
*797 ANTENNA__255__A1
*798 ANTENNA__255__S
*799 ANTENNA__257__A0
*800 ANTENNA__257__S
*801 ANTENNA__259__A0
*802 ANTENNA__259__S
*803 ANTENNA__261__A0
*804 ANTENNA__261__A1
*805 ANTENNA__261__S
*806 ANTENNA__263__A0
*807 ANTENNA__263__A1
*808 ANTENNA__263__S
*809 ANTENNA__265__A0
*810 ANTENNA__265__A1
*811 ANTENNA__265__S
*812 ANTENNA__267__A1
*813 ANTENNA__267__S
*814 ANTENNA__269__A1
*815 ANTENNA__269__S
*816 ANTENNA__271__A1
*817 ANTENNA__271__S
*818 ANTENNA__273__S
*819 ANTENNA__275__A0
*820 ANTENNA__275__S
*821 ANTENNA__277__A0
*822 ANTENNA__277__A1
*823 ANTENNA__277__S
*824 ANTENNA__279__A
*825 ANTENNA__279__B
*826 ANTENNA__279__C_N
*827 ANTENNA__280__A
*828 ANTENNA__280__B
*829 ANTENNA__280__C
*830 ANTENNA__280__D
*831 ANTENNA__281__A
*832 ANTENNA__281__B
*833 ANTENNA__281__C
*834 ANTENNA__281__D
*835 ANTENNA__283__A
*836 ANTENNA__283__B
*837 ANTENNA__283__C
*838 ANTENNA__283__D
*839 ANTENNA__284__A_N
*840 ANTENNA__284__B
*841 ANTENNA__284__C
*842 ANTENNA__286__A
*843 ANTENNA__286__B
*844 ANTENNA__286__C
*845 ANTENNA__286__D_N
*846 ANTENNA__287__A
*847 ANTENNA__287__C
*848 ANTENNA__287__D
*849 ANTENNA__291__B1
*850 ANTENNA__292__A
*851 ANTENNA__294__A_N
*852 ANTENNA__296__A1
*853 ANTENNA__296__S
*854 ANTENNA__298__A
*855 ANTENNA__299__A
*856 ANTENNA__300__A
*857 ANTENNA__301__A
*858 ANTENNA__306__CLK
*859 ANTENNA__307__CLK
*860 ANTENNA_clkbuf_0_i_clk_A
*861 ANTENNA_input100_A
*862 ANTENNA_input101_A
*863 ANTENNA_input102_A
*864 ANTENNA_input103_A
*865 ANTENNA_input104_A
*866 ANTENNA_input105_A
*867 ANTENNA_input106_A
*868 ANTENNA_input107_A
*869 ANTENNA_input108_A
*870 ANTENNA_input109_A
*871 ANTENNA_input10_A
*872 ANTENNA_input110_A
*873 ANTENNA_input111_A
*874 ANTENNA_input112_A
*875 ANTENNA_input113_A
*876 ANTENNA_input114_A
*877 ANTENNA_input115_A
*878 ANTENNA_input116_A
*879 ANTENNA_input117_A
*880 ANTENNA_input118_A
*881 ANTENNA_input119_A
*882 ANTENNA_input11_A
*883 ANTENNA_input120_A
*884 ANTENNA_input121_A
*885 ANTENNA_input122_A
*886 ANTENNA_input123_A
*887 ANTENNA_input124_A
*888 ANTENNA_input125_A
*889 ANTENNA_input126_A
*890 ANTENNA_input127_A
*891 ANTENNA_input128_A
*892 ANTENNA_input129_A
*893 ANTENNA_input12_A
*894 ANTENNA_input130_A
*895 ANTENNA_input131_A
*896 ANTENNA_input132_A
*897 ANTENNA_input133_A
*898 ANTENNA_input134_A
*899 ANTENNA_input135_A
*900 ANTENNA_input136_A
*901 ANTENNA_input137_A
*902 ANTENNA_input138_A
*903 ANTENNA_input139_A
*904 ANTENNA_input13_A
*905 ANTENNA_input140_A
*906 ANTENNA_input141_A
*907 ANTENNA_input142_A
*908 ANTENNA_input143_A
*909 ANTENNA_input144_A
*910 ANTENNA_input145_A
*911 ANTENNA_input146_A
*912 ANTENNA_input147_A
*913 ANTENNA_input148_A
*914 ANTENNA_input149_A
*915 ANTENNA_input14_A
*916 ANTENNA_input150_A
*917 ANTENNA_input151_A
*918 ANTENNA_input152_A
*919 ANTENNA_input153_A
*920 ANTENNA_input154_A
*921 ANTENNA_input155_A
*922 ANTENNA_input156_A
*923 ANTENNA_input157_A
*924 ANTENNA_input158_A
*925 ANTENNA_input159_A
*926 ANTENNA_input15_A
*927 ANTENNA_input160_A
*928 ANTENNA_input161_A
*929 ANTENNA_input162_A
*930 ANTENNA_input163_A
*931 ANTENNA_input164_A
*932 ANTENNA_input165_A
*933 ANTENNA_input166_A
*934 ANTENNA_input167_A
*935 ANTENNA_input168_A
*936 ANTENNA_input169_A
*937 ANTENNA_input16_A
*938 ANTENNA_input17_A
*939 ANTENNA_input18_A
*940 ANTENNA_input19_A
*941 ANTENNA_input1_A
*942 ANTENNA_input20_A
*943 ANTENNA_input21_A
*944 ANTENNA_input22_A
*945 ANTENNA_input23_A
*946 ANTENNA_input24_A
*947 ANTENNA_input25_A
*948 ANTENNA_input26_A
*949 ANTENNA_input27_A
*950 ANTENNA_input28_A
*951 ANTENNA_input29_A
*952 ANTENNA_input2_A
*953 ANTENNA_input30_A
*954 ANTENNA_input31_A
*955 ANTENNA_input32_A
*956 ANTENNA_input33_A
*957 ANTENNA_input34_A
*958 ANTENNA_input35_A
*959 ANTENNA_input36_A
*960 ANTENNA_input37_A
*961 ANTENNA_input38_A
*962 ANTENNA_input39_A
*963 ANTENNA_input3_A
*964 ANTENNA_input40_A
*965 ANTENNA_input41_A
*966 ANTENNA_input42_A
*967 ANTENNA_input43_A
*968 ANTENNA_input44_A
*969 ANTENNA_input45_A
*970 ANTENNA_input46_A
*971 ANTENNA_input47_A
*972 ANTENNA_input48_A
*973 ANTENNA_input49_A
*974 ANTENNA_input4_A
*975 ANTENNA_input50_A
*976 ANTENNA_input51_A
*977 ANTENNA_input52_A
*978 ANTENNA_input53_A
*979 ANTENNA_input54_A
*980 ANTENNA_input55_A
*981 ANTENNA_input56_A
*982 ANTENNA_input57_A
*983 ANTENNA_input58_A
*984 ANTENNA_input59_A
*985 ANTENNA_input5_A
*986 ANTENNA_input60_A
*987 ANTENNA_input61_A
*988 ANTENNA_input62_A
*989 ANTENNA_input63_A
*990 ANTENNA_input64_A
*991 ANTENNA_input65_A
*992 ANTENNA_input66_A
*993 ANTENNA_input67_A
*994 ANTENNA_input68_A
*995 ANTENNA_input69_A
*996 ANTENNA_input6_A
*997 ANTENNA_input70_A
*998 ANTENNA_input71_A
*999 ANTENNA_input72_A
*1000 ANTENNA_input73_A
*1001 ANTENNA_input74_A
*1002 ANTENNA_input75_A
*1003 ANTENNA_input76_A
*1004 ANTENNA_input77_A
*1005 ANTENNA_input78_A
*1006 ANTENNA_input79_A
*1007 ANTENNA_input7_A
*1008 ANTENNA_input80_A
*1009 ANTENNA_input81_A
*1010 ANTENNA_input82_A
*1011 ANTENNA_input83_A
*1012 ANTENNA_input84_A
*1013 ANTENNA_input85_A
*1014 ANTENNA_input86_A
*1015 ANTENNA_input87_A
*1016 ANTENNA_input88_A
*1017 ANTENNA_input89_A
*1018 ANTENNA_input8_A
*1019 ANTENNA_input90_A
*1020 ANTENNA_input91_A
*1021 ANTENNA_input92_A
*1022 ANTENNA_input93_A
*1023 ANTENNA_input94_A
*1024 ANTENNA_input95_A
*1025 ANTENNA_input96_A
*1026 ANTENNA_input97_A
*1027 ANTENNA_input98_A
*1028 ANTENNA_input99_A
*1029 ANTENNA_input9_A
*1030 ANTENNA_output170_A
*1031 ANTENNA_output171_A
*1032 ANTENNA_output172_A
*1033 ANTENNA_output173_A
*1034 ANTENNA_output174_A
*1035 ANTENNA_output175_A
*1036 ANTENNA_output176_A
*1037 ANTENNA_output178_A
*1038 ANTENNA_output179_A
*1039 ANTENNA_output180_A
*1040 ANTENNA_output181_A
*1041 ANTENNA_output182_A
*1042 ANTENNA_output184_A
*1043 ANTENNA_output186_A
*1044 ANTENNA_output187_A
*1045 ANTENNA_output188_A
*1046 ANTENNA_output190_A
*1047 ANTENNA_output192_A
*1048 ANTENNA_output193_A
*1049 ANTENNA_output194_A
*1050 ANTENNA_output196_A
*1051 ANTENNA_output197_A
*1052 ANTENNA_output198_A
*1053 ANTENNA_output201_A
*1054 ANTENNA_output205_A
*1055 ANTENNA_output206_A
*1056 ANTENNA_output213_A
*1057 ANTENNA_output215_A
*1058 ANTENNA_output216_A
*1059 ANTENNA_output217_A
*1060 ANTENNA_output218_A
*1061 ANTENNA_output222_A
*1062 ANTENNA_output224_A
*1063 ANTENNA_output226_A
*1064 ANTENNA_output230_A
*1065 ANTENNA_output234_A
*1066 ANTENNA_output235_A
*1067 ANTENNA_output238_A
*1068 ANTENNA_output239_A
*1069 ANTENNA_output240_A
*1070 ANTENNA_output241_A
*1071 ANTENNA_output243_A
*1072 ANTENNA_output245_A
*1073 ANTENNA_output248_A
*1074 ANTENNA_output253_A
*1075 ANTENNA_output254_A
*1076 ANTENNA_output255_A
*1077 ANTENNA_output256_A
*1078 ANTENNA_output258_A
*1079 FILLER_0_105
*1080 FILLER_0_111
*1081 FILLER_0_113
*1082 FILLER_0_125
*1083 FILLER_0_13
*1084 FILLER_0_133
*1085 FILLER_0_139
*1086 FILLER_0_145
*1087 FILLER_0_153
*1088 FILLER_0_157
*1089 FILLER_0_164
*1090 FILLER_0_169
*1091 FILLER_0_175
*1092 FILLER_0_181
*1093 FILLER_0_189
*1094 FILLER_0_19
*1095 FILLER_0_195
*1096 FILLER_0_201
*1097 FILLER_0_209
*1098 FILLER_0_217
*1099 FILLER_0_223
*1100 FILLER_0_225
*1101 FILLER_0_237
*1102 FILLER_0_24
*1103 FILLER_0_245
*1104 FILLER_0_251
*1105 FILLER_0_262
*1106 FILLER_0_270
*1107 FILLER_0_276
*1108 FILLER_0_284
*1109 FILLER_0_29
*1110 FILLER_0_291
*1111 FILLER_0_298
*1112 FILLER_0_304
*1113 FILLER_0_309
*1114 FILLER_0_321
*1115 FILLER_0_329
*1116 FILLER_0_335
*1117 FILLER_0_347
*1118 FILLER_0_357
*1119 FILLER_0_363
*1120 FILLER_0_365
*1121 FILLER_0_371
*1122 FILLER_0_375
*1123 FILLER_0_380
*1124 FILLER_0_388
*1125 FILLER_0_403
*1126 FILLER_0_41
*1127 FILLER_0_47
*1128 FILLER_0_52
*1129 FILLER_0_57
*1130 FILLER_0_63
*1131 FILLER_0_69
*1132 FILLER_0_77
*1133 FILLER_0_83
*1134 FILLER_0_89
*1135 FILLER_0_97
*1136 FILLER_10_109
*1137 FILLER_10_121
*1138 FILLER_10_13
*1139 FILLER_10_133
*1140 FILLER_10_139
*1141 FILLER_10_141
*1142 FILLER_10_153
*1143 FILLER_10_175
*1144 FILLER_10_187
*1145 FILLER_10_195
*1146 FILLER_10_197
*1147 FILLER_10_209
*1148 FILLER_10_221
*1149 FILLER_10_233
*1150 FILLER_10_245
*1151 FILLER_10_25
*1152 FILLER_10_251
*1153 FILLER_10_253
*1154 FILLER_10_265
*1155 FILLER_10_277
*1156 FILLER_10_289
*1157 FILLER_10_29
*1158 FILLER_10_301
*1159 FILLER_10_307
*1160 FILLER_10_309
*1161 FILLER_10_321
*1162 FILLER_10_333
*1163 FILLER_10_345
*1164 FILLER_10_357
*1165 FILLER_10_363
*1166 FILLER_10_365
*1167 FILLER_10_377
*1168 FILLER_10_389
*1169 FILLER_10_397
*1170 FILLER_10_403
*1171 FILLER_10_41
*1172 FILLER_10_53
*1173 FILLER_10_65
*1174 FILLER_10_77
*1175 FILLER_10_83
*1176 FILLER_10_85
*1177 FILLER_10_97
*1178 FILLER_11_105
*1179 FILLER_11_111
*1180 FILLER_11_113
*1181 FILLER_11_125
*1182 FILLER_11_13
*1183 FILLER_11_137
*1184 FILLER_11_149
*1185 FILLER_11_164
*1186 FILLER_11_171
*1187 FILLER_11_183
*1188 FILLER_11_19
*1189 FILLER_11_195
*1190 FILLER_11_207
*1191 FILLER_11_219
*1192 FILLER_11_223
*1193 FILLER_11_225
*1194 FILLER_11_237
*1195 FILLER_11_249
*1196 FILLER_11_261
*1197 FILLER_11_273
*1198 FILLER_11_279
*1199 FILLER_11_281
*1200 FILLER_11_293
*1201 FILLER_11_305
*1202 FILLER_11_31
*1203 FILLER_11_317
*1204 FILLER_11_329
*1205 FILLER_11_335
*1206 FILLER_11_337
*1207 FILLER_11_349
*1208 FILLER_11_361
*1209 FILLER_11_373
*1210 FILLER_11_385
*1211 FILLER_11_391
*1212 FILLER_11_395
*1213 FILLER_11_403
*1214 FILLER_11_43
*1215 FILLER_11_55
*1216 FILLER_11_57
*1217 FILLER_11_69
*1218 FILLER_11_81
*1219 FILLER_11_93
*1220 FILLER_12_109
*1221 FILLER_12_121
*1222 FILLER_12_13
*1223 FILLER_12_133
*1224 FILLER_12_139
*1225 FILLER_12_141
*1226 FILLER_12_153
*1227 FILLER_12_165
*1228 FILLER_12_177
*1229 FILLER_12_189
*1230 FILLER_12_195
*1231 FILLER_12_197
*1232 FILLER_12_209
*1233 FILLER_12_221
*1234 FILLER_12_233
*1235 FILLER_12_245
*1236 FILLER_12_25
*1237 FILLER_12_251
*1238 FILLER_12_253
*1239 FILLER_12_265
*1240 FILLER_12_277
*1241 FILLER_12_289
*1242 FILLER_12_29
*1243 FILLER_12_301
*1244 FILLER_12_307
*1245 FILLER_12_309
*1246 FILLER_12_321
*1247 FILLER_12_333
*1248 FILLER_12_345
*1249 FILLER_12_357
*1250 FILLER_12_363
*1251 FILLER_12_365
*1252 FILLER_12_377
*1253 FILLER_12_389
*1254 FILLER_12_403
*1255 FILLER_12_41
*1256 FILLER_12_53
*1257 FILLER_12_65
*1258 FILLER_12_7
*1259 FILLER_12_77
*1260 FILLER_12_83
*1261 FILLER_12_85
*1262 FILLER_12_97
*1263 FILLER_13_105
*1264 FILLER_13_111
*1265 FILLER_13_113
*1266 FILLER_13_125
*1267 FILLER_13_137
*1268 FILLER_13_145
*1269 FILLER_13_148
*1270 FILLER_13_15
*1271 FILLER_13_161
*1272 FILLER_13_167
*1273 FILLER_13_171
*1274 FILLER_13_183
*1275 FILLER_13_195
*1276 FILLER_13_207
*1277 FILLER_13_219
*1278 FILLER_13_223
*1279 FILLER_13_225
*1280 FILLER_13_237
*1281 FILLER_13_249
*1282 FILLER_13_261
*1283 FILLER_13_27
*1284 FILLER_13_273
*1285 FILLER_13_279
*1286 FILLER_13_281
*1287 FILLER_13_293
*1288 FILLER_13_3
*1289 FILLER_13_305
*1290 FILLER_13_317
*1291 FILLER_13_329
*1292 FILLER_13_335
*1293 FILLER_13_337
*1294 FILLER_13_349
*1295 FILLER_13_361
*1296 FILLER_13_373
*1297 FILLER_13_385
*1298 FILLER_13_39
*1299 FILLER_13_391
*1300 FILLER_13_393
*1301 FILLER_13_403
*1302 FILLER_13_51
*1303 FILLER_13_55
*1304 FILLER_13_57
*1305 FILLER_13_69
*1306 FILLER_13_81
*1307 FILLER_13_93
*1308 FILLER_14_109
*1309 FILLER_14_117
*1310 FILLER_14_12
*1311 FILLER_14_123
*1312 FILLER_14_135
*1313 FILLER_14_139
*1314 FILLER_14_141
*1315 FILLER_14_153
*1316 FILLER_14_159
*1317 FILLER_14_163
*1318 FILLER_14_175
*1319 FILLER_14_187
*1320 FILLER_14_195
*1321 FILLER_14_197
*1322 FILLER_14_209
*1323 FILLER_14_221
*1324 FILLER_14_233
*1325 FILLER_14_24
*1326 FILLER_14_245
*1327 FILLER_14_251
*1328 FILLER_14_253
*1329 FILLER_14_265
*1330 FILLER_14_277
*1331 FILLER_14_289
*1332 FILLER_14_29
*1333 FILLER_14_301
*1334 FILLER_14_307
*1335 FILLER_14_309
*1336 FILLER_14_321
*1337 FILLER_14_333
*1338 FILLER_14_345
*1339 FILLER_14_357
*1340 FILLER_14_363
*1341 FILLER_14_365
*1342 FILLER_14_377
*1343 FILLER_14_389
*1344 FILLER_14_395
*1345 FILLER_14_403
*1346 FILLER_14_41
*1347 FILLER_14_53
*1348 FILLER_14_6
*1349 FILLER_14_65
*1350 FILLER_14_77
*1351 FILLER_14_83
*1352 FILLER_14_85
*1353 FILLER_14_97
*1354 FILLER_15_104
*1355 FILLER_15_113
*1356 FILLER_15_12
*1357 FILLER_15_125
*1358 FILLER_15_137
*1359 FILLER_15_140
*1360 FILLER_15_153
*1361 FILLER_15_159
*1362 FILLER_15_167
*1363 FILLER_15_169
*1364 FILLER_15_181
*1365 FILLER_15_193
*1366 FILLER_15_205
*1367 FILLER_15_217
*1368 FILLER_15_223
*1369 FILLER_15_225
*1370 FILLER_15_237
*1371 FILLER_15_24
*1372 FILLER_15_249
*1373 FILLER_15_261
*1374 FILLER_15_273
*1375 FILLER_15_279
*1376 FILLER_15_281
*1377 FILLER_15_293
*1378 FILLER_15_305
*1379 FILLER_15_317
*1380 FILLER_15_329
*1381 FILLER_15_335
*1382 FILLER_15_337
*1383 FILLER_15_349
*1384 FILLER_15_36
*1385 FILLER_15_361
*1386 FILLER_15_373
*1387 FILLER_15_385
*1388 FILLER_15_391
*1389 FILLER_15_393
*1390 FILLER_15_396
*1391 FILLER_15_403
*1392 FILLER_15_48
*1393 FILLER_15_57
*1394 FILLER_15_6
*1395 FILLER_15_69
*1396 FILLER_15_73
*1397 FILLER_15_79
*1398 FILLER_15_92
*1399 FILLER_16_109
*1400 FILLER_16_12
*1401 FILLER_16_121
*1402 FILLER_16_133
*1403 FILLER_16_139
*1404 FILLER_16_141
*1405 FILLER_16_153
*1406 FILLER_16_165
*1407 FILLER_16_177
*1408 FILLER_16_189
*1409 FILLER_16_195
*1410 FILLER_16_197
*1411 FILLER_16_209
*1412 FILLER_16_221
*1413 FILLER_16_233
*1414 FILLER_16_24
*1415 FILLER_16_245
*1416 FILLER_16_251
*1417 FILLER_16_253
*1418 FILLER_16_265
*1419 FILLER_16_277
*1420 FILLER_16_289
*1421 FILLER_16_29
*1422 FILLER_16_301
*1423 FILLER_16_307
*1424 FILLER_16_309
*1425 FILLER_16_321
*1426 FILLER_16_333
*1427 FILLER_16_345
*1428 FILLER_16_357
*1429 FILLER_16_363
*1430 FILLER_16_365
*1431 FILLER_16_377
*1432 FILLER_16_389
*1433 FILLER_16_393
*1434 FILLER_16_396
*1435 FILLER_16_403
*1436 FILLER_16_41
*1437 FILLER_16_53
*1438 FILLER_16_6
*1439 FILLER_16_65
*1440 FILLER_16_77
*1441 FILLER_16_83
*1442 FILLER_16_85
*1443 FILLER_16_97
*1444 FILLER_17_105
*1445 FILLER_17_108
*1446 FILLER_17_115
*1447 FILLER_17_12
*1448 FILLER_17_127
*1449 FILLER_17_139
*1450 FILLER_17_145
*1451 FILLER_17_156
*1452 FILLER_17_169
*1453 FILLER_17_181
*1454 FILLER_17_193
*1455 FILLER_17_205
*1456 FILLER_17_217
*1457 FILLER_17_223
*1458 FILLER_17_225
*1459 FILLER_17_237
*1460 FILLER_17_24
*1461 FILLER_17_249
*1462 FILLER_17_261
*1463 FILLER_17_273
*1464 FILLER_17_279
*1465 FILLER_17_28
*1466 FILLER_17_281
*1467 FILLER_17_293
*1468 FILLER_17_305
*1469 FILLER_17_317
*1470 FILLER_17_329
*1471 FILLER_17_335
*1472 FILLER_17_337
*1473 FILLER_17_349
*1474 FILLER_17_361
*1475 FILLER_17_373
*1476 FILLER_17_38
*1477 FILLER_17_385
*1478 FILLER_17_391
*1479 FILLER_17_403
*1480 FILLER_17_44
*1481 FILLER_17_57
*1482 FILLER_17_69
*1483 FILLER_17_81
*1484 FILLER_17_93
*1485 FILLER_18_106
*1486 FILLER_18_119
*1487 FILLER_18_131
*1488 FILLER_18_139
*1489 FILLER_18_141
*1490 FILLER_18_153
*1491 FILLER_18_165
*1492 FILLER_18_17
*1493 FILLER_18_177
*1494 FILLER_18_189
*1495 FILLER_18_195
*1496 FILLER_18_197
*1497 FILLER_18_209
*1498 FILLER_18_221
*1499 FILLER_18_233
*1500 FILLER_18_245
*1501 FILLER_18_25
*1502 FILLER_18_251
*1503 FILLER_18_253
*1504 FILLER_18_265
*1505 FILLER_18_277
*1506 FILLER_18_289
*1507 FILLER_18_29
*1508 FILLER_18_301
*1509 FILLER_18_307
*1510 FILLER_18_309
*1511 FILLER_18_321
*1512 FILLER_18_333
*1513 FILLER_18_345
*1514 FILLER_18_357
*1515 FILLER_18_363
*1516 FILLER_18_365
*1517 FILLER_18_377
*1518 FILLER_18_389
*1519 FILLER_18_397
*1520 FILLER_18_403
*1521 FILLER_18_41
*1522 FILLER_18_5
*1523 FILLER_18_53
*1524 FILLER_18_65
*1525 FILLER_18_77
*1526 FILLER_18_83
*1527 FILLER_18_85
*1528 FILLER_18_97
*1529 FILLER_19_105
*1530 FILLER_19_111
*1531 FILLER_19_113
*1532 FILLER_19_125
*1533 FILLER_19_149
*1534 FILLER_19_161
*1535 FILLER_19_167
*1536 FILLER_19_169
*1537 FILLER_19_181
*1538 FILLER_19_19
*1539 FILLER_19_193
*1540 FILLER_19_205
*1541 FILLER_19_217
*1542 FILLER_19_223
*1543 FILLER_19_225
*1544 FILLER_19_237
*1545 FILLER_19_249
*1546 FILLER_19_261
*1547 FILLER_19_273
*1548 FILLER_19_279
*1549 FILLER_19_281
*1550 FILLER_19_293
*1551 FILLER_19_305
*1552 FILLER_19_31
*1553 FILLER_19_317
*1554 FILLER_19_329
*1555 FILLER_19_335
*1556 FILLER_19_337
*1557 FILLER_19_349
*1558 FILLER_19_361
*1559 FILLER_19_365
*1560 FILLER_19_377
*1561 FILLER_19_389
*1562 FILLER_19_403
*1563 FILLER_19_43
*1564 FILLER_19_55
*1565 FILLER_19_57
*1566 FILLER_19_69
*1567 FILLER_19_7
*1568 FILLER_19_81
*1569 FILLER_19_93
*1570 FILLER_1_102
*1571 FILLER_1_108
*1572 FILLER_1_116
*1573 FILLER_1_122
*1574 FILLER_1_125
*1575 FILLER_1_132
*1576 FILLER_1_138
*1577 FILLER_1_15
*1578 FILLER_1_155
*1579 FILLER_1_162
*1580 FILLER_1_171
*1581 FILLER_1_177
*1582 FILLER_1_181
*1583 FILLER_1_187
*1584 FILLER_1_191
*1585 FILLER_1_195
*1586 FILLER_1_201
*1587 FILLER_1_209
*1588 FILLER_1_213
*1589 FILLER_1_220
*1590 FILLER_1_225
*1591 FILLER_1_229
*1592 FILLER_1_23
*1593 FILLER_1_235
*1594 FILLER_1_251
*1595 FILLER_1_264
*1596 FILLER_1_271
*1597 FILLER_1_279
*1598 FILLER_1_284
*1599 FILLER_1_291
*1600 FILLER_1_3
*1601 FILLER_1_30
*1602 FILLER_1_300
*1603 FILLER_1_306
*1604 FILLER_1_312
*1605 FILLER_1_316
*1606 FILLER_1_319
*1607 FILLER_1_332
*1608 FILLER_1_340
*1609 FILLER_1_347
*1610 FILLER_1_354
*1611 FILLER_1_36
*1612 FILLER_1_363
*1613 FILLER_1_372
*1614 FILLER_1_380
*1615 FILLER_1_388
*1616 FILLER_1_393
*1617 FILLER_1_399