*SPEF "ieee 1481-1999"
*DESIGN "upper_core_logic"
*DATE "11:11:11 Fri 11 11, 1111"
*VENDOR "OpenRCX"
*PROGRAM "Parallel Extraction"
*VERSION "1.0"
*DESIGN_FLOW "NAME_SCOPE LOCAL" "PIN_CAP NONE"
*DIVIDER /
*DELIMITER :
*BUS_DELIMITER []
*T_UNIT 1 NS
*C_UNIT 1 PF
*R_UNIT 1 OHM
*L_UNIT 1 HENRY

*NAME_MAP
*1 cc_data_page
*2 cc_instr_page
*3 data_cacheable
*4 data_mem_addr[0]
*5 data_mem_addr[10]
*6 data_mem_addr[11]
*7 data_mem_addr[12]
*8 data_mem_addr[13]
*9 data_mem_addr[14]
*10 data_mem_addr[15]
*11 data_mem_addr[1]
*12 data_mem_addr[2]
*13 data_mem_addr[3]
*14 data_mem_addr[4]
*15 data_mem_addr[5]
*16 data_mem_addr[6]
*17 data_mem_addr[7]
*18 data_mem_addr[8]
*19 data_mem_addr[9]
*20 data_mem_addr_paged[0]
*21 data_mem_addr_paged[10]
*22 data_mem_addr_paged[11]
*23 data_mem_addr_paged[12]
*24 data_mem_addr_paged[13]
*25 data_mem_addr_paged[14]
*26 data_mem_addr_paged[15]
*27 data_mem_addr_paged[16]
*28 data_mem_addr_paged[17]
*29 data_mem_addr_paged[18]
*30 data_mem_addr_paged[19]
*31 data_mem_addr_paged[1]
*32 data_mem_addr_paged[20]
*33 data_mem_addr_paged[21]
*34 data_mem_addr_paged[22]
*35 data_mem_addr_paged[23]
*36 data_mem_addr_paged[2]
*37 data_mem_addr_paged[3]
*38 data_mem_addr_paged[4]
*39 data_mem_addr_paged[5]
*40 data_mem_addr_paged[6]
*41 data_mem_addr_paged[7]
*42 data_mem_addr_paged[8]
*43 data_mem_addr_paged[9]
*44 fetch_wb_adr[0]
*45 fetch_wb_adr[10]
*46 fetch_wb_adr[11]
*47 fetch_wb_adr[12]
*48 fetch_wb_adr[13]
*49 fetch_wb_adr[14]
*50 fetch_wb_adr[15]
*51 fetch_wb_adr[1]
*52 fetch_wb_adr[2]
*53 fetch_wb_adr[3]
*54 fetch_wb_adr[4]
*55 fetch_wb_adr[5]
*56 fetch_wb_adr[6]
*57 fetch_wb_adr[7]
*58 fetch_wb_adr[8]
*59 fetch_wb_adr[9]
*60 fetch_wb_adr_paged[0]
*61 fetch_wb_adr_paged[10]
*62 fetch_wb_adr_paged[11]
*63 fetch_wb_adr_paged[12]
*64 fetch_wb_adr_paged[13]
*65 fetch_wb_adr_paged[14]
*66 fetch_wb_adr_paged[15]
*67 fetch_wb_adr_paged[16]
*68 fetch_wb_adr_paged[17]
*69 fetch_wb_adr_paged[18]
*70 fetch_wb_adr_paged[19]
*71 fetch_wb_adr_paged[1]
*72 fetch_wb_adr_paged[20]
*73 fetch_wb_adr_paged[21]
*74 fetch_wb_adr_paged[22]
*75 net132
*76 fetch_wb_adr_paged[2]
*77 fetch_wb_adr_paged[3]
*78 fetch_wb_adr_paged[4]
*79 fetch_wb_adr_paged[5]
*80 fetch_wb_adr_paged[6]
*81 fetch_wb_adr_paged[7]
*82 fetch_wb_adr_paged[8]
*83 fetch_wb_adr_paged[9]
*84 net114
*85 net124
*86 net125
*87 net126
*88 net127
*89 net128
*90 net129
*91 net115
*92 net116
*93 net117
*94 net118
*95 net119
*96 net120
*97 net121
*98 net122
*99 net123
*100 i_clk
*101 i_rst
*102 sr_bus_addr[0]
*103 sr_bus_addr[10]
*104 sr_bus_addr[11]
*105 sr_bus_addr[12]
*106 sr_bus_addr[13]
*107 sr_bus_addr[14]
*108 sr_bus_addr[15]
*109 sr_bus_addr[1]
*110 sr_bus_addr[2]
*111 sr_bus_addr[3]
*112 sr_bus_addr[4]
*113 sr_bus_addr[5]
*114 sr_bus_addr[6]
*115 sr_bus_addr[7]
*116 sr_bus_addr[8]
*117 sr_bus_addr[9]
*118 sr_bus_data_o[0]
*119 sr_bus_data_o[10]
*120 sr_bus_data_o[11]
*121 sr_bus_data_o[12]
*122 sr_bus_data_o[13]
*123 sr_bus_data_o[14]
*124 sr_bus_data_o[15]
*125 sr_bus_data_o[1]
*126 sr_bus_data_o[2]
*127 sr_bus_data_o[3]
*128 sr_bus_data_o[4]
*129 sr_bus_data_o[5]
*130 sr_bus_data_o[6]
*131 sr_bus_data_o[7]
*132 sr_bus_data_o[8]
*133 sr_bus_data_o[9]
*134 sr_bus_we
*137 net130
*138 net133
*139 net131
*140 _0000_
*141 _0001_
*142 _0002_
*143 _0003_
*144 _0004_
*145 _0005_
*146 _0006_
*147 _0007_
*148 _0008_
*149 _0009_
*150 _0010_
*151 _0011_
*152 _0012_
*153 _0013_
*154 _0014_
*155 _0015_
*156 _0016_
*157 _0017_
*158 _0018_
*159 _0019_
*160 _0020_
*161 _0021_
*162 _0022_
*163 _0023_
*164 _0024_
*165 _0025_
*166 _0026_
*167 _0027_
*168 _0028_
*169 _0029_
*170 _0030_
*171 _0031_
*172 _0032_
*173 _0033_
*174 _0034_
*175 _0035_
*176 _0036_
*177 _0037_
*178 _0038_
*179 _0039_
*180 _0040_
*181 _0041_
*182 _0042_
*183 _0043_
*184 _0044_
*185 _0045_
*186 _0046_
*187 _0047_
*188 _0048_
*189 _0049_
*190 _0050_
*191 _0051_
*192 _0052_
*193 _0053_
*194 _0054_
*195 _0055_
*196 _0056_
*197 _0057_
*198 _0058_
*199 _0059_
*200 _0060_
*201 _0061_
*202 _0062_
*203 _0063_
*204 _0064_
*205 _0065_
*206 _0066_
*207 _0067_
*208 _0068_
*209 _0069_
*210 _0070_
*211 _0071_
*212 _0072_
*213 _0073_
*214 _0074_
*215 _0075_
*216 _0076_
*217 _0077_
*218 _0078_
*219 _0079_
*220 _0080_
*221 _0081_
*222 _0082_
*223 _0083_
*224 _0084_
*225 _0085_
*226 _0086_
*227 _0087_
*228 _0088_
*229 _0089_
*230 _0090_
*231 _0091_
*232 _0092_
*233 _0093_
*234 _0094_
*235 _0095_
*236 _0096_
*237 _0097_
*238 _0098_
*239 _0099_
*240 _0100_
*241 _0101_
*242 _0102_
*243 _0103_
*244 _0104_
*245 _0105_
*246 _0106_
*247 _0107_
*248 _0108_
*249 _0109_
*250 _0110_
*251 _0111_
*252 _0112_
*253 _0113_
*254 _0114_
*255 _0115_
*256 _0116_
*257 _0117_
*258 _0118_
*259 _0119_
*260 _0120_
*261 _0121_
*262 _0122_
*263 _0123_
*264 _0124_
*265 _0125_
*266 _0126_
*267 _0127_
*268 _0128_
*269 _0129_
*270 _0130_
*271 _0131_
*272 _0132_
*273 _0133_
*274 _0134_
*275 _0135_
*276 _0136_
*277 _0137_
*278 _0138_
*279 _0139_
*280 _0140_
*281 _0141_
*282 _0142_
*283 _0143_
*284 _0144_
*285 _0145_
*286 _0146_
*287 _0147_
*288 _0148_
*289 _0149_
*290 _0150_
*291 _0151_
*292 _0152_
*293 _0153_
*294 _0154_
*295 _0155_
*296 _0156_
*297 _0157_
*298 _0158_
*299 _0159_
*300 _0160_
*301 _0161_
*302 _0162_
*303 _0163_
*304 _0164_
*305 _0165_
*306 _0166_
*307 _0167_
*308 _0168_
*309 _0169_
*310 _0170_
*311 _0171_
*312 _0172_
*313 _0173_
*314 _0174_
*315 _0175_
*316 _0176_
*317 _0177_
*318 _0178_
*319 _0179_
*320 _0180_
*321 _0181_
*322 _0182_
*323 _0183_
*324 _0184_
*325 _0185_
*326 _0186_
*327 _0187_
*328 _0188_
*329 _0189_
*330 _0190_
*331 _0191_
*332 _0192_
*333 _0193_
*334 _0194_
*335 _0195_
*336 _0196_
*337 _0197_
*338 _0198_
*339 _0199_
*340 _0200_
*341 _0201_
*342 _0202_
*343 _0203_
*344 _0204_
*345 _0205_
*346 _0206_
*347 _0207_
*348 _0208_
*349 _0209_
*350 _0210_
*351 _0211_
*352 _0212_
*353 _0213_
*354 _0214_
*355 _0215_
*356 _0216_
*357 _0217_
*358 _0218_
*359 _0219_
*360 _0220_
*361 _0221_
*362 _0222_
*363 _0223_
*364 _0224_
*365 _0225_
*366 _0226_
*367 _0227_
*368 _0228_
*369 _0229_
*370 _0230_
*371 _0231_
*372 _0232_
*373 _0233_
*374 _0234_
*375 _0235_
*376 _0236_
*377 _0237_
*378 _0238_
*379 _0239_
*380 _0240_
*381 _0241_
*382 _0242_
*383 _0243_
*384 _0244_
*385 _0245_
*386 _0246_
*387 _0247_
*388 _0248_
*389 _0249_
*390 _0250_
*391 _0251_
*392 _0252_
*393 _0253_
*394 _0254_
*395 _0255_
*396 _0256_
*397 _0257_
*398 _0258_
*399 _0259_
*400 _0260_
*401 _0261_
*402 _0262_
*403 _0263_
*404 _0264_
*405 _0265_
*406 _0266_
*407 _0267_
*408 _0268_
*409 _0269_
*410 _0270_
*411 _0271_
*412 _0272_
*413 _0273_
*414 _0274_
*415 _0275_
*416 _0276_
*417 _0277_
*418 _0278_
*419 _0279_
*420 _0280_
*421 _0281_
*422 _0282_
*423 _0283_
*424 _0284_
*425 _0285_
*426 _0286_
*427 _0287_
*428 _0288_
*429 _0289_
*430 _0290_
*431 _0291_
*432 _0292_
*433 _0293_
*434 _0294_
*435 _0295_
*436 _0296_
*437 _0297_
*438 _0298_
*439 _0299_
*440 _0300_
*441 _0301_
*442 _0302_
*443 _0303_
*444 _0304_
*445 _0305_
*446 _0306_
*447 _0307_
*448 _0308_
*449 _0309_
*450 _0310_
*451 _0311_
*452 _0312_
*453 _0313_
*454 _0314_
*455 _0315_
*456 _0316_
*457 _0317_
*458 _0318_
*459 _0319_
*460 _0320_
*461 _0321_
*462 _0322_
*463 _0323_
*464 _0324_
*465 _0325_
*466 _0326_
*467 _0327_
*468 _0328_
*469 _0329_
*470 _0330_
*471 _0331_
*472 _0332_
*473 _0333_
*474 _0334_
*475 _0335_
*476 _0336_
*477 _0337_
*478 _0338_
*479 _0339_
*480 _0340_
*481 _0341_
*482 _0342_
*483 _0343_
*484 _0344_
*485 _0345_
*486 _0346_
*487 _0347_
*488 _0348_
*489 _0349_
*490 _0350_
*491 _0351_
*492 _0352_
*493 _0353_
*494 _0354_
*495 _0355_
*496 _0356_
*497 _0357_
*498 _0358_
*499 _0359_
*500 _0360_
*501 _0361_
*502 _0362_
*503 _0363_
*504 _0364_
*505 _0365_
*506 _0366_
*507 _0367_
*508 _0368_
*509 _0369_
*510 _0370_
*511 _0371_
*512 _0372_
*513 _0373_
*514 _0374_
*515 _0375_
*516 _0376_
*517 _0377_
*518 _0378_
*519 _0379_
*520 _0380_
*521 _0381_
*522 _0382_
*523 _0383_
*524 _0384_
*525 _0385_
*526 _0386_
*527 _0387_
*528 _0388_
*529 _0389_
*530 _0390_
*531 _0391_
*532 _0392_
*533 _0393_
*534 _0394_
*535 _0395_
*536 _0396_
*537 _0397_
*538 _0398_
*539 _0399_
*540 _0400_
*541 _0401_
*542 _0402_
*543 _0403_
*544 _0404_
*545 _0405_
*546 _0406_
*547 _0407_
*548 _0408_
*549 _0409_
*550 _0410_
*551 _0411_
*552 _0412_
*553 _0413_
*554 _0414_
*555 _0415_
*556 _0416_
*557 _0417_
*558 _0418_
*559 _0419_
*560 _0420_
*561 _0421_
*562 _0422_
*563 _0423_
*564 _0424_
*565 _0425_
*566 _0426_
*567 _0427_
*568 _0428_
*569 _0429_
*570 _0430_
*571 _0431_
*572 _0432_
*573 _0433_
*574 _0434_
*575 _0435_
*576 _0436_
*577 _0437_
*578 _0438_
*579 _0439_
*580 _0440_
*581 _0441_
*582 _0442_
*583 _0443_
*584 _0444_
*585 _0445_
*586 _0446_
*587 _0447_
*588 _0448_
*589 _0449_
*590 _0450_
*591 _0451_
*592 _0452_
*593 _0453_
*594 _0454_
*595 _0455_
*596 _0456_
*597 _0457_
*598 _0458_
*599 _0459_
*600 _0460_
*601 _0461_
*602 _0462_
*603 _0463_
*604 _0464_
*605 _0465_
*606 _0466_
*607 _0467_
*608 _0468_
*609 _0469_
*610 _0470_
*611 _0471_
*612 _0472_
*613 _0473_
*614 _0474_
*615 _0475_
*616 _0476_
*617 _0477_
*618 _0478_
*619 _0479_
*620 _0480_
*621 _0481_
*622 _0482_
*623 _0483_
*624 _0484_
*625 _0485_
*626 _0486_
*627 _0487_
*628 _0488_
*629 _0489_
*630 _0490_
*631 _0491_
*632 _0492_
*633 _0493_
*634 _0494_
*635 _0495_
*636 _0496_
*637 _0497_
*638 _0498_
*639 _0499_
*640 _0500_
*641 _0501_
*642 _0502_
*643 _0503_
*644 _0504_
*645 _0505_
*646 _0506_
*647 _0507_
*648 _0508_
*649 _0509_
*650 _0510_
*651 _0511_
*652 _0512_
*653 _0513_
*654 _0514_
*655 _0515_
*656 _0516_
*657 _0517_
*658 _0518_
*659 _0519_
*660 _0520_
*661 _0521_
*662 _0522_
*663 _0523_
*664 _0524_
*665 _0525_
*666 _0526_
*667 _0527_
*668 _0528_
*669 _0529_
*670 _0530_
*671 _0531_
*672 _0532_
*673 _0533_
*674 _0534_
*675 _0535_
*676 _0536_
*677 _0537_
*678 _0538_
*679 _0539_
*680 _0540_
*681 _0541_
*682 _0542_
*683 _0543_
*684 _0544_
*685 _0545_
*686 _0546_
*687 _0547_
*688 _0548_
*689 _0549_
*690 _0550_
*691 _0551_
*692 _0552_
*693 _0553_
*694 _0554_
*695 _0555_
*696 _0556_
*697 _0557_
*698 _0558_
*699 _0559_
*700 _0560_
*701 _0561_
*702 _0562_
*703 _0563_
*704 _0564_
*705 _0565_
*706 _0566_
*707 _0567_
*708 _0568_
*709 _0569_
*710 _0570_
*711 _0571_
*712 _0572_
*713 _0573_
*714 _0574_
*715 _0575_
*716 _0576_
*717 _0577_
*718 _0578_
*719 _0579_
*720 _0580_
*721 _0581_
*722 _0582_
*723 _0583_
*724 _0584_
*725 _0585_
*726 _0586_
*727 _0587_
*728 _0588_
*729 _0589_
*730 _0590_
*731 _0591_
*732 _0592_
*733 _0593_
*734 _0594_
*735 _0595_
*736 _0596_
*737 _0597_
*738 _0598_
*739 _0599_
*740 _0600_
*741 _0601_
*742 _0602_
*743 _0603_
*744 _0604_
*745 _0605_
*746 _0606_
*747 _0607_
*748 _0608_
*749 _0609_
*750 _0610_
*751 _0611_
*752 _0612_
*753 _0613_
*754 _0614_
*755 _0615_
*756 _0616_
*757 _0617_
*758 _0618_
*759 _0619_
*760 _0620_
*761 _0621_
*762 _0622_
*763 _0623_
*764 _0624_
*765 _0625_
*766 _0626_
*767 _0627_
*768 _0628_
*769 _0629_
*770 _0630_
*771 _0631_
*772 _0632_
*773 _0633_
*774 _0634_
*775 _0635_
*776 _0636_
*777 _0637_
*778 _0638_
*779 _0639_
*780 _0640_
*781 _0641_
*782 _0642_
*783 _0643_
*784 _0644_
*785 _0645_
*786 _0646_
*787 _0647_
*788 _0648_
*789 _0649_
*790 _0650_
*791 _0651_
*792 _0652_
*793 _0653_
*794 _0654_
*795 _0655_
*796 _0656_
*797 _0657_
*798 _0658_
*799 _0659_
*800 _0660_
*801 _0661_
*802 _0662_
*803 _0663_
*804 _0664_
*805 _0665_
*806 _0666_
*807 _0667_
*808 _0668_
*809 _0669_
*810 _0670_
*811 _0671_
*812 _0672_
*813 _0673_
*814 _0674_
*815 _0675_
*816 _0676_
*817 _0677_
*818 _0678_
*819 _0679_
*820 _0680_
*821 _0681_
*822 _0682_
*823 _0683_
*824 _0684_
*825 _0685_
*826 _0686_
*827 _0687_
*828 _0688_
*829 _0689_
*830 _0690_
*831 _0691_
*832 _0692_
*833 _0693_
*834 _0694_
*835 _0695_
*836 _0696_
*837 _0697_
*838 _0698_
*839 _0699_
*840 _0700_
*841 _0701_
*842 _0702_
*843 _0703_
*844 _0704_
*845 _0705_
*846 _0706_
*847 _0707_
*848 _0708_
*849 _0709_
*850 _0710_
*851 _0711_
*852 _0712_
*853 _0713_
*854 _0714_
*855 _0715_
*856 _0716_
*857 _0717_
*858 _0718_
*859 _0719_
*860 _0720_
*861 _0721_
*862 _0722_
*863 _0723_
*864 _0724_
*865 _0725_
*866 _0726_
*867 _0727_
*868 _0728_
*869 _0729_
*870 _0730_
*871 _0731_
*872 _0732_
*873 _0733_
*874 _0734_
*875 _0735_
*876 _0736_
*877 _0737_
*878 _0738_
*879 _0739_
*880 _0740_
*881 _0741_
*882 _0742_
*883 _0743_
*884 _0744_
*885 _0745_
*886 _0746_
*887 _0747_
*888 _0748_
*889 _0749_
*890 _0750_
*891 _0751_
*892 _0752_
*893 _0753_
*894 _0754_
*895 _0755_
*896 _0756_
*897 _0757_
*898 _0758_
*899 _0759_
*900 _0760_
*901 _0761_
*902 _0762_
*903 _0763_
*904 _0764_
*905 _0765_
*906 _0766_
*907 _0767_
*908 _0768_
*909 _0769_
*910 _0770_
*911 _0771_
*912 _0772_
*913 _0773_
*914 _0774_
*915 _0775_
*916 _0776_
*917 _0777_
*918 _0778_
*919 _0779_
*920 _0780_
*921 _0781_
*922 _0782_
*923 _0783_
*924 _0784_
*925 _0785_
*926 _0786_
*927 _0787_
*928 _0788_
*929 _0789_
*930 _0790_
*931 _0791_
*932 _0792_
*933 _0793_
*934 _0794_
*935 _0795_
*936 _0796_
*937 _0797_
*938 _0798_
*939 _0799_
*940 _0800_
*941 _0801_
*942 _0802_
*943 _0803_
*944 _0804_
*945 _0805_
*946 _0806_
*947 _0807_
*948 _0808_
*949 _0809_
*950 _0810_
*951 _0811_
*952 _0812_
*953 _0813_
*954 _0814_
*955 _0815_
*956 _0816_
*957 _0817_
*958 _0818_
*959 _0819_
*960 _0820_
*961 _0821_
*962 _0822_
*963 _0823_
*964 _0824_
*965 _0825_
*966 _0826_
*967 _0827_
*968 _0828_
*969 _0829_
*970 _0830_
*971 _0831_
*972 _0832_
*973 _0833_
*974 _0834_
*975 _0835_
*976 _0836_
*977 _0837_
*978 _0838_
*979 _0839_
*980 _0840_
*981 _0841_
*982 _0842_
*983 _0843_
*984 _0844_
*985 _0845_
*986 _0846_
*987 _0847_
*988 _0848_
*989 _0849_
*990 _0850_
*991 _0851_
*992 _0852_
*993 _0853_
*994 _0854_
*995 _0855_
*996 _0856_
*997 _0857_
*998 _0858_
*999 _0859_
*1000 _0860_
*1001 _0861_
*1002 _0862_
*1003 _0863_
*1004 _0864_
*1005 _0865_
*1006 _0866_
*1007 _0867_
*1008 _0868_
*1009 _0869_
*1010 _0870_
*1011 _0871_
*1012 _0872_
*1013 _0873_
*1014 _0874_
*1015 _0875_
*1016 _0876_
*1017 _0877_
*1018 _0878_
*1019 _0879_
*1020 _0880_
*1021 _0881_
*1022 _0882_
*1023 _0883_
*1024 _0884_
*1025 _0885_
*1026 clknet_0_i_clk
*1027 clknet_2_0__leaf_i_clk
*1028 clknet_2_1__leaf_i_clk
*1029 clknet_2_2__leaf_i_clk
*1030 clknet_2_3__leaf_i_clk
*1031 clknet_leaf_0_i_clk
*1032 clknet_leaf_10_i_clk
*1033 clknet_leaf_11_i_clk
*1034 clknet_leaf_12_i_clk
*1035 clknet_leaf_13_i_clk
*1036 clknet_leaf_14_i_clk
*1037 clknet_leaf_15_i_clk
*1038 clknet_leaf_16_i_clk
*1039 clknet_leaf_17_i_clk
*1040 clknet_leaf_18_i_clk
*1041 clknet_leaf_19_i_clk
*1042 clknet_leaf_1_i_clk
*1043 clknet_leaf_20_i_clk
*1044 clknet_leaf_21_i_clk
*1045 clknet_leaf_22_i_clk
*1046 clknet_leaf_23_i_clk
*1047 clknet_leaf_24_i_clk
*1048 clknet_leaf_25_i_clk
*1049 clknet_leaf_26_i_clk
*1050 clknet_leaf_27_i_clk
*1051 clknet_leaf_28_i_clk
*1052 clknet_leaf_29_i_clk
*1053 clknet_leaf_2_i_clk
*1054 clknet_leaf_30_i_clk
*1055 clknet_leaf_31_i_clk
*1056 clknet_leaf_32_i_clk
*1057 clknet_leaf_33_i_clk
*1058 clknet_leaf_34_i_clk
*1059 clknet_leaf_35_i_clk
*1060 clknet_leaf_36_i_clk
*1061 clknet_leaf_37_i_clk
*1062 clknet_leaf_38_i_clk
*1063 clknet_leaf_39_i_clk
*1064 clknet_leaf_3_i_clk
*1065 clknet_leaf_40_i_clk
*1066 clknet_leaf_41_i_clk
*1067 clknet_leaf_42_i_clk
*1068 clknet_leaf_43_i_clk
*1069 clknet_leaf_44_i_clk
*1070 clknet_leaf_45_i_clk
*1071 clknet_leaf_46_i_clk
*1072 clknet_leaf_4_i_clk
*1073 clknet_leaf_5_i_clk
*1074 clknet_leaf_6_i_clk
*1075 clknet_leaf_7_i_clk
*1076 clknet_leaf_8_i_clk
*1077 clknet_leaf_9_i_clk
*1078 d_mmu\.page_table\[0\]\[0\]
*1079 d_mmu\.page_table\[0\]\[10\]
*1080 d_mmu\.page_table\[0\]\[11\]
*1081 d_mmu\.page_table\[0\]\[12\]
*1082 d_mmu\.page_table\[0\]\[1\]
*1083 d_mmu\.page_table\[0\]\[2\]
*1084 d_mmu\.page_table\[0\]\[3\]
*1085 d_mmu\.page_table\[0\]\[4\]
*1086 d_mmu\.page_table\[0\]\[5\]
*1087 d_mmu\.page_table\[0\]\[6\]
*1088 d_mmu\.page_table\[0\]\[7\]
*1089 d_mmu\.page_table\[0\]\[8\]
*1090 d_mmu\.page_table\[0\]\[9\]
*1091 d_mmu\.page_table\[10\]\[0\]
*1092 d_mmu\.page_table\[10\]\[10\]
*1093 d_mmu\.page_table\[10\]\[11\]
*1094 d_mmu\.page_table\[10\]\[12\]
*1095 d_mmu\.page_table\[10\]\[1\]
*1096 d_mmu\.page_table\[10\]\[2\]
*1097 d_mmu\.page_table\[10\]\[3\]
*1098 d_mmu\.page_table\[10\]\[4\]
*1099 d_mmu\.page_table\[10\]\[5\]
*1100 d_mmu\.page_table\[10\]\[6\]
*1101 d_mmu\.page_table\[10\]\[7\]
*1102 d_mmu\.page_table\[10\]\[8\]
*1103 d_mmu\.page_table\[10\]\[9\]
*1104 d_mmu\.page_table\[11\]\[0\]
*1105 d_mmu\.page_table\[11\]\[10\]
*1106 d_mmu\.page_table\[11\]\[11\]
*1107 d_mmu\.page_table\[11\]\[12\]
*1108 d_mmu\.page_table\[11\]\[1\]
*1109 d_mmu\.page_table\[11\]\[2\]
*1110 d_mmu\.page_table\[11\]\[3\]
*1111 d_mmu\.page_table\[11\]\[4\]
*1112 d_mmu\.page_table\[11\]\[5\]
*1113 d_mmu\.page_table\[11\]\[6\]
*1114 d_mmu\.page_table\[11\]\[7\]
*1115 d_mmu\.page_table\[11\]\[8\]
*1116 d_mmu\.page_table\[11\]\[9\]
*1117 d_mmu\.page_table\[12\]\[0\]
*1118 d_mmu\.page_table\[12\]\[10\]
*1119 d_mmu\.page_table\[12\]\[11\]
*1120 d_mmu\.page_table\[12\]\[12\]
*1121 d_mmu\.page_table\[12\]\[1\]
*1122 d_mmu\.page_table\[12\]\[2\]
*1123 d_mmu\.page_table\[12\]\[3\]
*1124 d_mmu\.page_table\[12\]\[4\]
*1125 d_mmu\.page_table\[12\]\[5\]
*1126 d_mmu\.page_table\[12\]\[6\]
*1127 d_mmu\.page_table\[12\]\[7\]
*1128 d_mmu\.page_table\[12\]\[8\]
*1129 d_mmu\.page_table\[12\]\[9\]
*1130 d_mmu\.page_table\[13\]\[0\]
*1131 d_mmu\.page_table\[13\]\[10\]
*1132 d_mmu\.page_table\[13\]\[11\]
*1133 d_mmu\.page_table\[13\]\[12\]
*1134 d_mmu\.page_table\[13\]\[1\]
*1135 d_mmu\.page_table\[13\]\[2\]
*1136 d_mmu\.page_table\[13\]\[3\]
*1137 d_mmu\.page_table\[13\]\[4\]
*1138 d_mmu\.page_table\[13\]\[5\]
*1139 d_mmu\.page_table\[13\]\[6\]
*1140 d_mmu\.page_table\[13\]\[7\]
*1141 d_mmu\.page_table\[13\]\[8\]
*1142 d_mmu\.page_table\[13\]\[9\]
*1143 d_mmu\.page_table\[14\]\[0\]
*1144 d_mmu\.page_table\[14\]\[10\]
*1145 d_mmu\.page_table\[14\]\[11\]
*1146 d_mmu\.page_table\[14\]\[12\]
*1147 d_mmu\.page_table\[14\]\[1\]
*1148 d_mmu\.page_table\[14\]\[2\]
*1149 d_mmu\.page_table\[14\]\[3\]
*1150 d_mmu\.page_table\[14\]\[4\]
*1151 d_mmu\.page_table\[14\]\[5\]
*1152 d_mmu\.page_table\[14\]\[6\]
*1153 d_mmu\.page_table\[14\]\[7\]
*1154 d_mmu\.page_table\[14\]\[8\]
*1155 d_mmu\.page_table\[14\]\[9\]
*1156 d_mmu\.page_table\[15\]\[0\]
*1157 d_mmu\.page_table\[15\]\[10\]
*1158 d_mmu\.page_table\[15\]\[11\]
*1159 d_mmu\.page_table\[15\]\[12\]
*1160 d_mmu\.page_table\[15\]\[1\]
*1161 d_mmu\.page_table\[15\]\[2\]
*1162 d_mmu\.page_table\[15\]\[3\]
*1163 d_mmu\.page_table\[15\]\[4\]
*1164 d_mmu\.page_table\[15\]\[5\]
*1165 d_mmu\.page_table\[15\]\[6\]
*1166 d_mmu\.page_table\[15\]\[7\]
*1167 d_mmu\.page_table\[15\]\[8\]
*1168 d_mmu\.page_table\[15\]\[9\]
*1169 d_mmu\.page_table\[1\]\[0\]
*1170 d_mmu\.page_table\[1\]\[10\]
*1171 d_mmu\.page_table\[1\]\[11\]
*1172 d_mmu\.page_table\[1\]\[12\]
*1173 d_mmu\.page_table\[1\]\[1\]
*1174 d_mmu\.page_table\[1\]\[2\]
*1175 d_mmu\.page_table\[1\]\[3\]
*1176 d_mmu\.page_table\[1\]\[4\]
*1177 d_mmu\.page_table\[1\]\[5\]
*1178 d_mmu\.page_table\[1\]\[6\]
*1179 d_mmu\.page_table\[1\]\[7\]
*1180 d_mmu\.page_table\[1\]\[8\]
*1181 d_mmu\.page_table\[1\]\[9\]
*1182 d_mmu\.page_table\[2\]\[0\]
*1183 d_mmu\.page_table\[2\]\[10\]
*1184 d_mmu\.page_table\[2\]\[11\]
*1185 d_mmu\.page_table\[2\]\[12\]
*1186 d_mmu\.page_table\[2\]\[1\]
*1187 d_mmu\.page_table\[2\]\[2\]
*1188 d_mmu\.page_table\[2\]\[3\]
*1189 d_mmu\.page_table\[2\]\[4\]
*1190 d_mmu\.page_table\[2\]\[5\]
*1191 d_mmu\.page_table\[2\]\[6\]
*1192 d_mmu\.page_table\[2\]\[7\]
*1193 d_mmu\.page_table\[2\]\[8\]
*1194 d_mmu\.page_table\[2\]\[9\]
*1195 d_mmu\.page_table\[3\]\[0\]
*1196 d_mmu\.page_table\[3\]\[10\]
*1197 d_mmu\.page_table\[3\]\[11\]
*1198 d_mmu\.page_table\[3\]\[12\]
*1199 d_mmu\.page_table\[3\]\[1\]
*1200 d_mmu\.page_table\[3\]\[2\]
*1201 d_mmu\.page_table\[3\]\[3\]
*1202 d_mmu\.page_table\[3\]\[4\]
*1203 d_mmu\.page_table\[3\]\[5\]
*1204 d_mmu\.page_table\[3\]\[6\]
*1205 d_mmu\.page_table\[3\]\[7\]
*1206 d_mmu\.page_table\[3\]\[8\]
*1207 d_mmu\.page_table\[3\]\[9\]
*1208 d_mmu\.page_table\[4\]\[0\]
*1209 d_mmu\.page_table\[4\]\[10\]
*1210 d_mmu\.page_table\[4\]\[11\]
*1211 d_mmu\.page_table\[4\]\[12\]
*1212 d_mmu\.page_table\[4\]\[1\]
*1213 d_mmu\.page_table\[4\]\[2\]
*1214 d_mmu\.page_table\[4\]\[3\]
*1215 d_mmu\.page_table\[4\]\[4\]
*1216 d_mmu\.page_table\[4\]\[5\]
*1217 d_mmu\.page_table\[4\]\[6\]
*1218 d_mmu\.page_table\[4\]\[7\]
*1219 d_mmu\.page_table\[4\]\[8\]
*1220 d_mmu\.page_table\[4\]\[9\]
*1221 d_mmu\.page_table\[5\]\[0\]
*1222 d_mmu\.page_table\[5\]\[10\]
*1223 d_mmu\.page_table\[5\]\[11\]
*1224 d_mmu\.page_table\[5\]\[12\]
*1225 d_mmu\.page_table\[5\]\[1\]
*1226 d_mmu\.page_table\[5\]\[2\]
*1227 d_mmu\.page_table\[5\]\[3\]
*1228 d_mmu\.page_table\[5\]\[4\]
*1229 d_mmu\.page_table\[5\]\[5\]
*1230 d_mmu\.page_table\[5\]\[6\]
*1231 d_mmu\.page_table\[5\]\[7\]
*1232 d_mmu\.page_table\[5\]\[8\]
*1233 d_mmu\.page_table\[5\]\[9\]
*1234 d_mmu\.page_table\[6\]\[0\]
*1235 d_mmu\.page_table\[6\]\[10\]
*1236 d_mmu\.page_table\[6\]\[11\]
*1237 d_mmu\.page_table\[6\]\[12\]
*1238 d_mmu\.page_table\[6\]\[1\]
*1239 d_mmu\.page_table\[6\]\[2\]
*1240 d_mmu\.page_table\[6\]\[3\]
*1241 d_mmu\.page_table\[6\]\[4\]
*1242 d_mmu\.page_table\[6\]\[5\]
*1243 d_mmu\.page_table\[6\]\[6\]
*1244 d_mmu\.page_table\[6\]\[7\]
*1245 d_mmu\.page_table\[6\]\[8\]
*1246 d_mmu\.page_table\[6\]\[9\]
*1247 d_mmu\.page_table\[7\]\[0\]
*1248 d_mmu\.page_table\[7\]\[10\]
*1249 d_mmu\.page_table\[7\]\[11\]
*1250 d_mmu\.page_table\[7\]\[12\]
*1251 d_mmu\.page_table\[7\]\[1\]
*1252 d_mmu\.page_table\[7\]\[2\]
*1253 d_mmu\.page_table\[7\]\[3\]
*1254 d_mmu\.page_table\[7\]\[4\]
*1255 d_mmu\.page_table\[7\]\[5\]
*1256 d_mmu\.page_table\[7\]\[6\]
*1257 d_mmu\.page_table\[7\]\[7\]
*1258 d_mmu\.page_table\[7\]\[8\]
*1259 d_mmu\.page_table\[7\]\[9\]
*1260 d_mmu\.page_table\[8\]\[0\]
*1261 d_mmu\.page_table\[8\]\[10\]
*1262 d_mmu\.page_table\[8\]\[11\]
*1263 d_mmu\.page_table\[8\]\[12\]
*1264 d_mmu\.page_table\[8\]\[1\]
*1265 d_mmu\.page_table\[8\]\[2\]
*1266 d_mmu\.page_table\[8\]\[3\]
*1267 d_mmu\.page_table\[8\]\[4\]
*1268 d_mmu\.page_table\[8\]\[5\]
*1269 d_mmu\.page_table\[8\]\[6\]
*1270 d_mmu\.page_table\[8\]\[7\]
*1271 d_mmu\.page_table\[8\]\[8\]
*1272 d_mmu\.page_table\[8\]\[9\]
*1273 d_mmu\.page_table\[9\]\[0\]
*1274 d_mmu\.page_table\[9\]\[10\]
*1275 d_mmu\.page_table\[9\]\[11\]
*1276 d_mmu\.page_table\[9\]\[12\]
*1277 d_mmu\.page_table\[9\]\[1\]
*1278 d_mmu\.page_table\[9\]\[2\]
*1279 d_mmu\.page_table\[9\]\[3\]
*1280 d_mmu\.page_table\[9\]\[4\]
*1281 d_mmu\.page_table\[9\]\[5\]
*1282 d_mmu\.page_table\[9\]\[6\]
*1283 d_mmu\.page_table\[9\]\[7\]
*1284 d_mmu\.page_table\[9\]\[8\]
*1285 d_mmu\.page_table\[9\]\[9\]
*1286 i_mmu\.page_table\[0\]\[0\]
*1287 i_mmu\.page_table\[0\]\[10\]
*1288 i_mmu\.page_table\[0\]\[1\]
*1289 i_mmu\.page_table\[0\]\[2\]
*1290 i_mmu\.page_table\[0\]\[3\]
*1291 i_mmu\.page_table\[0\]\[4\]
*1292 i_mmu\.page_table\[0\]\[5\]
*1293 i_mmu\.page_table\[0\]\[6\]
*1294 i_mmu\.page_table\[0\]\[7\]
*1295 i_mmu\.page_table\[0\]\[8\]
*1296 i_mmu\.page_table\[0\]\[9\]
*1297 i_mmu\.page_table\[10\]\[0\]
*1298 i_mmu\.page_table\[10\]\[10\]
*1299 i_mmu\.page_table\[10\]\[1\]
*1300 i_mmu\.page_table\[10\]\[2\]
*1301 i_mmu\.page_table\[10\]\[3\]
*1302 i_mmu\.page_table\[10\]\[4\]
*1303 i_mmu\.page_table\[10\]\[5\]
*1304 i_mmu\.page_table\[10\]\[6\]
*1305 i_mmu\.page_table\[10\]\[7\]
*1306 i_mmu\.page_table\[10\]\[8\]
*1307 i_mmu\.page_table\[10\]\[9\]
*1308 i_mmu\.page_table\[11\]\[0\]
*1309 i_mmu\.page_table\[11\]\[10\]
*1310 i_mmu\.page_table\[11\]\[1\]
*1311 i_mmu\.page_table\[11\]\[2\]
*1312 i_mmu\.page_table\[11\]\[3\]
*1313 i_mmu\.page_table\[11\]\[4\]
*1314 i_mmu\.page_table\[11\]\[5\]
*1315 i_mmu\.page_table\[11\]\[6\]
*1316 i_mmu\.page_table\[11\]\[7\]
*1317 i_mmu\.page_table\[11\]\[8\]
*1318 i_mmu\.page_table\[11\]\[9\]
*1319 i_mmu\.page_table\[12\]\[0\]
*1320 i_mmu\.page_table\[12\]\[10\]
*1321 i_mmu\.page_table\[12\]\[1\]
*1322 i_mmu\.page_table\[12\]\[2\]
*1323 i_mmu\.page_table\[12\]\[3\]
*1324 i_mmu\.page_table\[12\]\[4\]
*1325 i_mmu\.page_table\[12\]\[5\]
*1326 i_mmu\.page_table\[12\]\[6\]
*1327 i_mmu\.page_table\[12\]\[7\]
*1328 i_mmu\.page_table\[12\]\[8\]
*1329 i_mmu\.page_table\[12\]\[9\]
*1330 i_mmu\.page_table\[13\]\[0\]
*1331 i_mmu\.page_table\[13\]\[10\]
*1332 i_mmu\.page_table\[13\]\[1\]
*1333 i_mmu\.page_table\[13\]\[2\]
*1334 i_mmu\.page_table\[13\]\[3\]
*1335 i_mmu\.page_table\[13\]\[4\]
*1336 i_mmu\.page_table\[13\]\[5\]
*1337 i_mmu\.page_table\[13\]\[6\]
*1338 i_mmu\.page_table\[13\]\[7\]
*1339 i_mmu\.page_table\[13\]\[8\]
*1340 i_mmu\.page_table\[13\]\[9\]
*1341 i_mmu\.page_table\[14\]\[0\]
*1342 i_mmu\.page_table\[14\]\[10\]
*1343 i_mmu\.page_table\[14\]\[1\]
*1344 i_mmu\.page_table\[14\]\[2\]
*1345 i_mmu\.page_table\[14\]\[3\]
*1346 i_mmu\.page_table\[14\]\[4\]
*1347 i_mmu\.page_table\[14\]\[5\]
*1348 i_mmu\.page_table\[14\]\[6\]
*1349 i_mmu\.page_table\[14\]\[7\]
*1350 i_mmu\.page_table\[14\]\[8\]
*1351 i_mmu\.page_table\[14\]\[9\]
*1352 i_mmu\.page_table\[15\]\[0\]
*1353 i_mmu\.page_table\[15\]\[10\]
*1354 i_mmu\.page_table\[15\]\[1\]
*1355 i_mmu\.page_table\[15\]\[2\]
*1356 i_mmu\.page_table\[15\]\[3\]
*1357 i_mmu\.page_table\[15\]\[4\]
*1358 i_mmu\.page_table\[15\]\[5\]
*1359 i_mmu\.page_table\[15\]\[6\]
*1360 i_mmu\.page_table\[15\]\[7\]
*1361 i_mmu\.page_table\[15\]\[8\]
*1362 i_mmu\.page_table\[15\]\[9\]
*1363 i_mmu\.page_table\[1\]\[0\]
*1364 i_mmu\.page_table\[1\]\[10\]
*1365 i_mmu\.page_table\[1\]\[1\]
*1366 i_mmu\.page_table\[1\]\[2\]
*1367 i_mmu\.page_table\[1\]\[3\]
*1368 i_mmu\.page_table\[1\]\[4\]
*1369 i_mmu\.page_table\[1\]\[5\]
*1370 i_mmu\.page_table\[1\]\[6\]
*1371 i_mmu\.page_table\[1\]\[7\]
*1372 i_mmu\.page_table\[1\]\[8\]
*1373 i_mmu\.page_table\[1\]\[9\]
*1374 i_mmu\.page_table\[2\]\[0\]
*1375 i_mmu\.page_table\[2\]\[10\]
*1376 i_mmu\.page_table\[2\]\[1\]
*1377 i_mmu\.page_table\[2\]\[2\]
*1378 i_mmu\.page_table\[2\]\[3\]
*1379 i_mmu\.page_table\[2\]\[4\]
*1380 i_mmu\.page_table\[2\]\[5\]
*1381 i_mmu\.page_table\[2\]\[6\]
*1382 i_mmu\.page_table\[2\]\[7\]
*1383 i_mmu\.page_table\[2\]\[8\]
*1384 i_mmu\.page_table\[2\]\[9\]
*1385 i_mmu\.page_table\[3\]\[0\]
*1386 i_mmu\.page_table\[3\]\[10\]
*1387 i_mmu\.page_table\[3\]\[1\]
*1388 i_mmu\.page_table\[3\]\[2\]
*1389 i_mmu\.page_table\[3\]\[3\]
*1390 i_mmu\.page_table\[3\]\[4\]
*1391 i_mmu\.page_table\[3\]\[5\]
*1392 i_mmu\.page_table\[3\]\[6\]
*1393 i_mmu\.page_table\[3\]\[7\]
*1394 i_mmu\.page_table\[3\]\[8\]
*1395 i_mmu\.page_table\[3\]\[9\]
*1396 i_mmu\.page_table\[4\]\[0\]
*1397 i_mmu\.page_table\[4\]\[10\]
*1398 i_mmu\.page_table\[4\]\[1\]
*1399 i_mmu\.page_table\[4\]\[2\]
*1400 i_mmu\.page_table\[4\]\[3\]
*1401 i_mmu\.page_table\[4\]\[4\]
*1402 i_mmu\.page_table\[4\]\[5\]
*1403 i_mmu\.page_table\[4\]\[6\]
*1404 i_mmu\.page_table\[4\]\[7\]
*1405 i_mmu\.page_table\[4\]\[8\]
*1406 i_mmu\.page_table\[4\]\[9\]
*1407 i_mmu\.page_table\[5\]\[0\]
*1408 i_mmu\.page_table\[5\]\[10\]
*1409 i_mmu\.page_table\[5\]\[1\]
*1410 i_mmu\.page_table\[5\]\[2\]
*1411 i_mmu\.page_table\[5\]\[3\]
*1412 i_mmu\.page_table\[5\]\[4\]
*1413 i_mmu\.page_table\[5\]\[5\]
*1414 i_mmu\.page_table\[5\]\[6\]
*1415 i_mmu\.page_table\[5\]\[7\]
*1416 i_mmu\.page_table\[5\]\[8\]
*1417 i_mmu\.page_table\[5\]\[9\]
*1418 i_mmu\.page_table\[6\]\[0\]
*1419 i_mmu\.page_table\[6\]\[10\]
*1420 i_mmu\.page_table\[6\]\[1\]
*1421 i_mmu\.page_table\[6\]\[2\]
*1422 i_mmu\.page_table\[6\]\[3\]
*1423 i_mmu\.page_table\[6\]\[4\]
*1424 i_mmu\.page_table\[6\]\[5\]
*1425 i_mmu\.page_table\[6\]\[6\]
*1426 i_mmu\.page_table\[6\]\[7\]
*1427 i_mmu\.page_table\[6\]\[8\]
*1428 i_mmu\.page_table\[6\]\[9\]
*1429 i_mmu\.page_table\[7\]\[0\]
*1430 i_mmu\.page_table\[7\]\[10\]
*1431 i_mmu\.page_table\[7\]\[1\]
*1432 i_mmu\.page_table\[7\]\[2\]
*1433 i_mmu\.page_table\[7\]\[3\]
*1434 i_mmu\.page_table\[7\]\[4\]
*1435 i_mmu\.page_table\[7\]\[5\]
*1436 i_mmu\.page_table\[7\]\[6\]
*1437 i_mmu\.page_table\[7\]\[7\]
*1438 i_mmu\.page_table\[7\]\[8\]
*1439 i_mmu\.page_table\[7\]\[9\]
*1440 i_mmu\.page_table\[8\]\[0\]
*1441 i_mmu\.page_table\[8\]\[10\]
*1442 i_mmu\.page_table\[8\]\[1\]
*1443 i_mmu\.page_table\[8\]\[2\]
*1444 i_mmu\.page_table\[8\]\[3\]
*1445 i_mmu\.page_table\[8\]\[4\]
*1446 i_mmu\.page_table\[8\]\[5\]
*1447 i_mmu\.page_table\[8\]\[6\]
*1448 i_mmu\.page_table\[8\]\[7\]
*1449 i_mmu\.page_table\[8\]\[8\]
*1450 i_mmu\.page_table\[8\]\[9\]
*1451 i_mmu\.page_table\[9\]\[0\]
*1452 i_mmu\.page_table\[9\]\[10\]
*1453 i_mmu\.page_table\[9\]\[1\]
*1454 i_mmu\.page_table\[9\]\[2\]
*1455 i_mmu\.page_table\[9\]\[3\]
*1456 i_mmu\.page_table\[9\]\[4\]
*1457 i_mmu\.page_table\[9\]\[5\]
*1458 i_mmu\.page_table\[9\]\[6\]
*1459 i_mmu\.page_table\[9\]\[7\]
*1460 i_mmu\.page_table\[9\]\[8\]
*1461 i_mmu\.page_table\[9\]\[9\]
*1462 net1
*1463 net10
*1464 net100
*1465 net101
*1466 net102
*1467 net103
*1468 net104
*1469 net105
*1470 net106
*1471 net107
*1472 net108
*1473 net109
*1474 net11
*1475 net110
*1476 net111
*1477 net112
*1478 net113
*1479 net12
*1480 net13
*1481 net14
*1482 net15
*1483 net16
*1484 net17
*1485 net18
*1486 net19
*1487 net2
*1488 net20
*1489 net21
*1490 net22
*1491 net23
*1492 net24
*1493 net25
*1494 net26
*1495 net27
*1496 net28
*1497 net29
*1498 net3
*1499 net30
*1500 net31
*1501 net32
*1502 net33
*1503 net34
*1504 net35
*1505 net36
*1506 net37
*1507 net38
*1508 net39
*1509 net4
*1510 net40
*1511 net41
*1512 net42
*1513 net43
*1514 net44
*1515 net45
*1516 net46
*1517 net47
*1518 net48
*1519 net49
*1520 net5
*1521 net50
*1522 net51
*1523 net52
*1524 net53
*1525 net54
*1526 net55
*1527 net56
*1528 net57
*1529 net58
*1530 net59
*1531 net6
*1532 net60
*1533 net61
*1534 net62
*1535 net63
*1536 net64
*1537 net65
*1538 net66
*1539 net67
*1540 net68
*1541 net69
*1542 net7
*1543 net70
*1544 net71
*1545 net72
*1546 net73
*1547 net74
*1548 net75
*1549 net76
*1550 net77
*1551 net78
*1552 net79
*1553 net8
*1554 net80
*1555 net81
*1556 net82
*1557 net83
*1558 net84
*1559 net85
*1560 net86
*1561 net87
*1562 net88
*1563 net89
*1564 net9
*1565 net90
*1566 net91
*1567 net92
*1568 net93
*1569 net94
*1570 net95
*1571 net96
*1572 net97
*1573 net98
*1574 net99
*1575 ANTENNA__0886__A
*1576 ANTENNA__0887__A
*1577 ANTENNA__0888__A