*SPEF "ieee 1481-1999"
*DESIGN "uprj_w_const"
*DATE "11:11:11 Fri 11 11, 1111"
*VENDOR "OpenRCX"
*PROGRAM "Parallel Extraction"
*VERSION "1.0"
*DESIGN_FLOW "NAME_SCOPE LOCAL" "PIN_CAP NONE"
*DIVIDER /
*DELIMITER :
*BUS_DELIMITER []
*T_UNIT 1 NS
*C_UNIT 1 PF
*R_UNIT 1 OHM
*L_UNIT 1 HENRY

*NAME_MAP
*1 net164
*2 net174
*3 net27
*4 net28
*5 net29
*6 net30
*7 net31
*8 net32
*9 net33
*10 net34
*11 net35
*12 net165
*13 net36
*14 net37
*15 net38
*16 net39
*17 net40
*18 net41
*19 net42
*20 net43
*21 net44
*22 net45
*23 net166
*24 net46
*25 net47
*26 net48
*27 net49
*28 net50
*29 net51
*30 net52
*31 net53
*32 net54
*33 net55
*34 net167
*35 net56
*36 net57
*37 net58
*38 net59
*39 net60
*40 net61
*41 net62
*42 net63
*43 net64
*44 net65
*45 net168
*46 net66
*47 net67
*48 net68
*49 net69
*50 net70
*51 net71
*52 net72
*53 net73
*54 net74
*55 net75
*56 net169
*57 net76
*58 net77
*59 net78
*60 net79
*61 net80
*62 net81
*63 net82
*64 net83
*65 net84
*66 net85
*67 net170
*68 net86
*69 net87
*70 net88
*71 net89
*72 net90
*73 net91
*74 net92
*75 net93
*76 net94
*77 net95
*78 net171
*79 net96
*80 net97
*81 net98
*82 net172
*83 net173
*84 cw_clk_i
*85 cw_clk_o
*86 cw_dir
*87 cw_dir_b_o
*88 cw_dir_b_oo
*89 net99
*90 cw_req_i
*91 cw_req_o
*92 cw_rst_i
*93 cw_rst_o
*94 io_oeb_15_0[0]
*95 io_oeb_15_0[10]
*96 io_oeb_15_0[11]
*97 io_oeb_15_0[12]
*98 io_oeb_15_0[13]
*99 io_oeb_15_0[14]
*100 io_oeb_15_0[15]
*101 io_oeb_15_0[1]
*102 io_oeb_15_0[2]
*103 io_oeb_15_0[3]
*104 io_oeb_15_0[4]
*105 io_oeb_15_0[5]
*106 io_oeb_15_0[6]
*107 io_oeb_15_0[7]
*108 io_oeb_15_0[8]
*109 io_oeb_15_0[9]
*110 net100
*111 net101
*112 net102
*113 net175
*114 net176
*115 net103
*116 net177
*117 net104
*118 net114
*119 net115
*120 net116
*121 net117
*122 net118
*123 net105
*124 net106
*125 net107
*126 net108
*127 net109
*128 net110
*129 net111
*130 net112
*131 net113
*132 net119
*133 net120
*134 net121
*135 net122
*136 net123
*137 net124
*138 net125
*139 net126
*140 net127
*141 net137
*142 net138
*143 net139
*144 net140
*145 net141
*146 net142
*147 net128
*148 net129
*149 net130
*150 net131
*151 net132
*152 net133
*153 net134
*154 net135
*155 net136
*156 net143
*157 net144
*158 net145
*159 la_datb_i[0]
*160 la_datb_i[1]
*161 la_datb_i[2]
*162 net146
*163 net147
*164 net148
*165 net149
*166 net159
*167 net160
*168 net161
*169 net162
*170 net163
*171 net150
*172 net151
*173 net152
*174 net153
*175 net154
*176 net155
*177 net156
*178 net157
*179 net158
*182 net1
*183 net10
*184 net11
*185 net12
*186 net13
*187 net14
*188 net15
*189 net16
*190 net17
*191 net18
*192 net19
*193 net2
*194 net20
*195 net21
*196 net22
*197 net23
*198 net24
*199 net25
*200 net26
*201 net3
*202 net4
*203 net5
*204 net6
*205 net7
*206 net8
*207 net9
*208 ANTENNA__152__A
*209 ANTENNA__153__A
*210 ANTENNA__155__A
*211 ANTENNA__156__A
*212 ANTENNA__157__A
*213 ANTENNA__158__A
*214 ANTENNA__159__A
*215 ANTENNA__160__A
*216 ANTENNA__161__A
*217 ANTENNA__162__A
*218 ANTENNA__163__A
*219 ANTENNA__164__A
*220 ANTENNA__165__A
*221 ANTENNA__166__A
*222 ANTENNA__167__A
*223 ANTENNA__168__A
*224 ANTENNA__169__A
*225 ANTENNA__170__A
*226 ANTENNA_input1_A
*227 ANTENNA_input2_A
*228 ANTENNA_input3_A
*229 ANTENNA_input4_A
*230 ANTENNA_input5_A
*231 ANTENNA_output6_A
*232 ANTENNA_repeater26_A
*233 FILLER_0_101
*234 FILLER_0_108
*235 FILLER_0_115
*236 FILLER_0_122
*237 FILLER_0_129
*238 FILLER_0_13
*239 FILLER_0_136
*240 FILLER_0_141
*241 FILLER_0_146
*242 FILLER_0_153
*243 FILLER_0_161
*244 FILLER_0_167
*245 FILLER_0_17
*246 FILLER_0_172
*247 FILLER_0_179
*248 FILLER_0_186
*249 FILLER_0_194
*250 FILLER_0_200
*251 FILLER_0_207
*252 FILLER_0_214
*253 FILLER_0_222
*254 FILLER_0_228
*255 FILLER_0_235
*256 FILLER_0_24
*257 FILLER_0_248
*258 FILLER_0_256
*259 FILLER_0_263
*260 FILLER_0_270
*261 FILLER_0_278
*262 FILLER_0_284
*263 FILLER_0_291
*264 FILLER_0_31
*265 FILLER_0_38
*266 FILLER_0_45
*267 FILLER_0_52
*268 FILLER_0_57
*269 FILLER_0_63
*270 FILLER_0_7
*271 FILLER_0_71
*272 FILLER_0_77
*273 FILLER_0_83
*274 FILLER_0_85
*275 FILLER_0_94
*276 FILLER_10_109
*277 FILLER_10_121
*278 FILLER_10_133
*279 FILLER_10_139
*280 FILLER_10_141
*281 FILLER_10_153
*282 FILLER_10_165
*283 FILLER_10_177
*284 FILLER_10_18
*285 FILLER_10_189
*286 FILLER_10_195
*287 FILLER_10_197
*288 FILLER_10_209
*289 FILLER_10_221
*290 FILLER_10_233
*291 FILLER_10_245
*292 FILLER_10_251
*293 FILLER_10_253
*294 FILLER_10_26
*295 FILLER_10_265
*296 FILLER_10_277
*297 FILLER_10_289
*298 FILLER_10_29
*299 FILLER_10_295
*300 FILLER_10_41
*301 FILLER_10_53
*302 FILLER_10_6
*303 FILLER_10_65
*304 FILLER_10_77
*305 FILLER_10_83
*306 FILLER_10_85
*307 FILLER_10_97
*308 FILLER_11_105
*309 FILLER_11_111
*310 FILLER_11_113
*311 FILLER_11_125
*312 FILLER_11_137
*313 FILLER_11_14
*314 FILLER_11_149
*315 FILLER_11_161
*316 FILLER_11_167
*317 FILLER_11_169
*318 FILLER_11_181
*319 FILLER_11_193
*320 FILLER_11_20
*321 FILLER_11_205
*322 FILLER_11_217
*323 FILLER_11_223
*324 FILLER_11_225
*325 FILLER_11_237
*326 FILLER_11_249
*327 FILLER_11_261
*328 FILLER_11_273
*329 FILLER_11_279
*330 FILLER_11_281
*331 FILLER_11_289
*332 FILLER_11_295
*333 FILLER_11_32
*334 FILLER_11_44
*335 FILLER_11_57
*336 FILLER_11_69
*337 FILLER_11_7
*338 FILLER_11_81
*339 FILLER_11_93
*340 FILLER_12_109
*341 FILLER_12_121
*342 FILLER_12_133
*343 FILLER_12_139
*344 FILLER_12_141
*345 FILLER_12_153
*346 FILLER_12_165
*347 FILLER_12_177
*348 FILLER_12_18
*349 FILLER_12_189
*350 FILLER_12_195
*351 FILLER_12_197
*352 FILLER_12_209
*353 FILLER_12_221
*354 FILLER_12_233
*355 FILLER_12_245
*356 FILLER_12_251
*357 FILLER_12_253
*358 FILLER_12_26
*359 FILLER_12_265
*360 FILLER_12_277
*361 FILLER_12_289
*362 FILLER_12_29
*363 FILLER_12_297
*364 FILLER_12_41
*365 FILLER_12_53
*366 FILLER_12_6
*367 FILLER_12_65
*368 FILLER_12_77
*369 FILLER_12_83
*370 FILLER_12_85
*371 FILLER_12_97
*372 FILLER_13_105
*373 FILLER_13_111
*374 FILLER_13_113
*375 FILLER_13_125
*376 FILLER_13_137
*377 FILLER_13_149
*378 FILLER_13_15
*379 FILLER_13_161
*380 FILLER_13_167
*381 FILLER_13_169
*382 FILLER_13_181
*383 FILLER_13_193
*384 FILLER_13_205
*385 FILLER_13_217
*386 FILLER_13_223
*387 FILLER_13_225
*388 FILLER_13_237
*389 FILLER_13_249
*390 FILLER_13_261
*391 FILLER_13_27
*392 FILLER_13_273
*393 FILLER_13_279
*394 FILLER_13_281
*395 FILLER_13_293
*396 FILLER_13_3
*397 FILLER_13_39
*398 FILLER_13_51
*399 FILLER_13_55
*400 FILLER_13_57
*401 FILLER_13_69
*402 FILLER_13_81
*403 FILLER_13_93
*404 FILLER_14_109
*405 FILLER_14_121
*406 FILLER_14_133
*407 FILLER_14_139
*408 FILLER_14_141
*409 FILLER_14_153
*410 FILLER_14_165
*411 FILLER_14_177
*412 FILLER_14_18
*413 FILLER_14_189
*414 FILLER_14_195
*415 FILLER_14_197
*416 FILLER_14_209
*417 FILLER_14_221
*418 FILLER_14_233
*419 FILLER_14_245
*420 FILLER_14_251
*421 FILLER_14_253
*422 FILLER_14_26
*423 FILLER_14_265
*424 FILLER_14_277
*425 FILLER_14_289
*426 FILLER_14_29
*427 FILLER_14_295
*428 FILLER_14_41
*429 FILLER_14_53
*430 FILLER_14_6
*431 FILLER_14_65
*432 FILLER_14_77
*433 FILLER_14_83
*434 FILLER_14_85
*435 FILLER_14_97
*436 FILLER_15_105
*437 FILLER_15_111
*438 FILLER_15_113
*439 FILLER_15_125
*440 FILLER_15_137
*441 FILLER_15_149
*442 FILLER_15_161
*443 FILLER_15_167
*444 FILLER_15_169
*445 FILLER_15_18
*446 FILLER_15_181
*447 FILLER_15_193
*448 FILLER_15_205
*449 FILLER_15_217
*450 FILLER_15_223
*451 FILLER_15_225
*452 FILLER_15_237
*453 FILLER_15_249
*454 FILLER_15_261
*455 FILLER_15_273
*456 FILLER_15_279
*457 FILLER_15_281
*458 FILLER_15_289
*459 FILLER_15_295
*460 FILLER_15_30
*461 FILLER_15_42
*462 FILLER_15_54
*463 FILLER_15_57
*464 FILLER_15_6
*465 FILLER_15_69
*466 FILLER_15_81
*467 FILLER_15_93
*468 FILLER_16_109
*469 FILLER_16_121
*470 FILLER_16_133
*471 FILLER_16_139
*472 FILLER_16_141
*473 FILLER_16_153
*474 FILLER_16_165
*475 FILLER_16_177
*476 FILLER_16_18
*477 FILLER_16_189
*478 FILLER_16_195
*479 FILLER_16_197
*480 FILLER_16_209
*481 FILLER_16_221
*482 FILLER_16_233
*483 FILLER_16_245
*484 FILLER_16_251
*485 FILLER_16_253
*486 FILLER_16_26
*487 FILLER_16_265
*488 FILLER_16_277
*489 FILLER_16_289
*490 FILLER_16_29
*491 FILLER_16_295
*492 FILLER_16_41
*493 FILLER_16_53
*494 FILLER_16_6
*495 FILLER_16_65
*496 FILLER_16_77
*497 FILLER_16_83
*498 FILLER_16_85
*499 FILLER_16_97
*500 FILLER_17_105
*501 FILLER_17_111
*502 FILLER_17_113
*503 FILLER_17_125
*504 FILLER_17_137
*505 FILLER_17_149
*506 FILLER_17_161
*507 FILLER_17_167
*508 FILLER_17_169
*509 FILLER_17_18
*510 FILLER_17_181
*511 FILLER_17_193
*512 FILLER_17_205
*513 FILLER_17_217
*514 FILLER_17_223
*515 FILLER_17_225
*516 FILLER_17_237
*517 FILLER_17_249
*518 FILLER_17_261
*519 FILLER_17_273
*520 FILLER_17_279
*521 FILLER_17_281
*522 FILLER_17_289
*523 FILLER_17_295
*524 FILLER_17_30
*525 FILLER_17_42
*526 FILLER_17_54
*527 FILLER_17_57
*528 FILLER_17_6
*529 FILLER_17_69
*530 FILLER_17_81
*531 FILLER_17_93
*532 FILLER_18_109
*533 FILLER_18_121
*534 FILLER_18_133
*535 FILLER_18_139
*536 FILLER_18_141
*537 FILLER_18_15
*538 FILLER_18_153
*539 FILLER_18_165
*540 FILLER_18_177
*541 FILLER_18_189
*542 FILLER_18_195
*543 FILLER_18_197
*544 FILLER_18_209
*545 FILLER_18_221
*546 FILLER_18_233
*547 FILLER_18_245
*548 FILLER_18_251
*549 FILLER_18_253
*550 FILLER_18_265
*551 FILLER_18_27
*552 FILLER_18_277
*553 FILLER_18_289
*554 FILLER_18_29
*555 FILLER_18_297
*556 FILLER_18_3
*557 FILLER_18_41
*558 FILLER_18_53
*559 FILLER_18_65
*560 FILLER_18_77
*561 FILLER_18_83
*562 FILLER_18_85
*563 FILLER_18_97
*564 FILLER_19_105
*565 FILLER_19_111
*566 FILLER_19_113
*567 FILLER_19_125
*568 FILLER_19_137
*569 FILLER_19_14
*570 FILLER_19_149
*571 FILLER_19_161
*572 FILLER_19_167
*573 FILLER_19_169
*574 FILLER_19_181
*575 FILLER_19_193
*576 FILLER_19_20
*577 FILLER_19_205
*578 FILLER_19_217
*579 FILLER_19_223
*580 FILLER_19_225
*581 FILLER_19_237
*582 FILLER_19_249
*583 FILLER_19_261
*584 FILLER_19_273
*585 FILLER_19_279
*586 FILLER_19_281
*587 FILLER_19_289
*588 FILLER_19_295
*589 FILLER_19_32
*590 FILLER_19_44
*591 FILLER_19_57
*592 FILLER_19_69
*593 FILLER_19_7
*594 FILLER_19_81
*595 FILLER_19_93
*596 FILLER_1_102
*597 FILLER_1_11
*598 FILLER_1_110
*599 FILLER_1_113
*600 FILLER_1_118
*601 FILLER_1_130
*602 FILLER_1_142
*603 FILLER_1_157
*604 FILLER_1_163
*605 FILLER_1_167
*606 FILLER_1_169
*607 FILLER_1_18
*608 FILLER_1_181
*609 FILLER_1_188
*610 FILLER_1_200
*611 FILLER_1_212
*612 FILLER_1_216
*613 FILLER_1_225
*614 FILLER_1_233
*615 FILLER_1_237
*616 FILLER_1_243
*617 FILLER_1_247
*618 FILLER_1_25
*619 FILLER_1_250
*620 FILLER_1_265
*621 FILLER_1_272
*622 FILLER_1_281
*623 FILLER_1_286
*624 FILLER_1_293
*625 FILLER_1_3
*626 FILLER_1_34
*627 FILLER_1_46
*628 FILLER_1_54
*629 FILLER_1_57
*630 FILLER_1_66
*631 FILLER_1_73
*632 FILLER_1_79
*633 FILLER_1_83
*634 FILLER_1_90
*635 FILLER_20_109
*636 FILLER_20_121
*637 FILLER_20_133
*638 FILLER_20_139
*639 FILLER_20_141
*640 FILLER_20_153
*641 FILLER_20_165
*642 FILLER_20_177
*643 FILLER_20_189
*644 FILLER_20_19
*645 FILLER_20_195
*646 FILLER_20_197
*647 FILLER_20_209
*648 FILLER_20_221
*649 FILLER_20_233
*650 FILLER_20_245
*651 FILLER_20_251
*652 FILLER_20_253
*653 FILLER_20_265
*654 FILLER_20_27
*655 FILLER_20_277
*656 FILLER_20_289
*657 FILLER_20_29
*658 FILLER_20_295
*659 FILLER_20_41
*660 FILLER_20_53
*661 FILLER_20_65
*662 FILLER_20_7
*663 FILLER_20_77
*664 FILLER_20_83
*665 FILLER_20_85
*666 FILLER_20_97
*667 FILLER_21_105
*668 FILLER_21_111
*669 FILLER_21_113
*670 FILLER_21_125
*671 FILLER_21_137
*672 FILLER_21_149
*673 FILLER_21_161
*674 FILLER_21_167
*675 FILLER_21_169
*676 FILLER_21_18
*677 FILLER_21_181
*678 FILLER_21_193
*679 FILLER_21_205
*680 FILLER_21_217
*681 FILLER_21_223
*682 FILLER_21_225
*683 FILLER_21_237
*684 FILLER_21_249
*685 FILLER_21_261
*686 FILLER_21_273
*687 FILLER_21_279
*688 FILLER_21_281
*689 FILLER_21_289
*690 FILLER_21_295
*691 FILLER_21_30
*692 FILLER_21_42
*693 FILLER_21_54
*694 FILLER_21_57
*695 FILLER_21_6
*696 FILLER_21_69
*697 FILLER_21_81
*698 FILLER_21_93
*699 FILLER_22_109
*700 FILLER_22_121
*701 FILLER_22_133
*702 FILLER_22_139
*703 FILLER_22_141
*704 FILLER_22_145
*705 FILLER_22_152
*706 FILLER_22_158
*707 FILLER_22_161
*708 FILLER_22_173
*709 FILLER_22_18
*710 FILLER_22_185
*711 FILLER_22_193
*712 FILLER_22_197
*713 FILLER_22_209
*714 FILLER_22_221
*715 FILLER_22_233
*716 FILLER_22_245
*717 FILLER_22_251
*718 FILLER_22_253
*719 FILLER_22_26
*720 FILLER_22_265
*721 FILLER_22_277
*722 FILLER_22_289
*723 FILLER_22_29
*724 FILLER_22_295
*725 FILLER_22_41
*726 FILLER_22_53
*727 FILLER_22_6
*728 FILLER_22_65
*729 FILLER_22_77
*730 FILLER_22_83
*731 FILLER_22_85
*732 FILLER_22_97
*733 FILLER_23_105
*734 FILLER_23_111
*735 FILLER_23_113
*736 FILLER_23_125
*737 FILLER_23_137
*738 FILLER_23_152
*739 FILLER_23_159
*740 FILLER_23_167
*741 FILLER_23_169
*742 FILLER_23_18
*743 FILLER_23_181
*744 FILLER_23_193
*745 FILLER_23_205
*746 FILLER_23_217
*747 FILLER_23_223
*748 FILLER_23_225
*749 FILLER_23_237
*750 FILLER_23_249
*751 FILLER_23_257
*752 FILLER_23_262
*753 FILLER_23_274
*754 FILLER_23_281
*755 FILLER_23_285
*756 FILLER_23_288
*757 FILLER_23_295
*758 FILLER_23_30
*759 FILLER_23_42
*760 FILLER_23_54
*761 FILLER_23_57
*762 FILLER_23_6
*763 FILLER_23_69
*764 FILLER_23_81
*765 FILLER_23_93
*766 FILLER_24_109
*767 FILLER_24_121
*768 FILLER_24_133
*769 FILLER_24_139
*770 FILLER_24_14
*771 FILLER_24_141
*772 FILLER_24_153
*773 FILLER_24_165
*774 FILLER_24_177
*775 FILLER_24_189
*776 FILLER_24_195
*777 FILLER_24_197
*778 FILLER_24_209
*779 FILLER_24_221
*780 FILLER_24_233
*781 FILLER_24_245
*782 FILLER_24_251
*783 FILLER_24_253
*784 FILLER_24_26
*785 FILLER_24_265
*786 FILLER_24_277
*787 FILLER_24_289
*788 FILLER_24_29
*789 FILLER_24_295
*790 FILLER_24_3
*791 FILLER_24_41
*792 FILLER_24_53
*793 FILLER_24_65
*794 FILLER_24_77
*795 FILLER_24_8
*796 FILLER_24_83
*797 FILLER_24_85
*798 FILLER_24_97
*799 FILLER_25_105
*800 FILLER_25_111
*801 FILLER_25_113
*802 FILLER_25_125
*803 FILLER_25_137
*804 FILLER_25_149
*805 FILLER_25_161
*806 FILLER_25_167
*807 FILLER_25_169
*808 FILLER_25_181
*809 FILLER_25_19
*810 FILLER_25_193
*811 FILLER_25_205
*812 FILLER_25_217
*813 FILLER_25_223
*814 FILLER_25_225
*815 FILLER_25_237
*816 FILLER_25_249
*817 FILLER_25_261
*818 FILLER_25_273
*819 FILLER_25_279
*820 FILLER_25_281
*821 FILLER_25_289
*822 FILLER_25_295
*823 FILLER_25_31
*824 FILLER_25_43
*825 FILLER_25_55
*826 FILLER_25_57
*827 FILLER_25_69
*828 FILLER_25_7
*829 FILLER_25_81
*830 FILLER_25_93
*831 FILLER_26_109
*832 FILLER_26_121
*833 FILLER_26_133
*834 FILLER_26_139
*835 FILLER_26_141
*836 FILLER_26_153
*837 FILLER_26_165
*838 FILLER_26_177
*839 FILLER_26_18
*840 FILLER_26_189
*841 FILLER_26_195
*842 FILLER_26_197
*843 FILLER_26_209
*844 FILLER_26_221
*845 FILLER_26_233
*846 FILLER_26_245
*847 FILLER_26_251
*848 FILLER_26_253
*849 FILLER_26_26
*850 FILLER_26_265
*851 FILLER_26_277
*852 FILLER_26_280
*853 FILLER_26_287
*854 FILLER_26_29
*855 FILLER_26_295
*856 FILLER_26_41
*857 FILLER_26_53
*858 FILLER_26_6
*859 FILLER_26_65
*860 FILLER_26_77
*861 FILLER_26_83
*862 FILLER_26_85
*863 FILLER_26_97
*864 FILLER_27_105
*865 FILLER_27_111
*866 FILLER_27_113
*867 FILLER_27_125
*868 FILLER_27_137
*869 FILLER_27_149
*870 FILLER_27_161
*871 FILLER_27_167
*872 FILLER_27_169
*873 FILLER_27_18
*874 FILLER_27_181
*875 FILLER_27_193
*876 FILLER_27_205
*877 FILLER_27_217
*878 FILLER_27_223
*879 FILLER_27_225
*880 FILLER_27_237
*881 FILLER_27_249
*882 FILLER_27_261
*883 FILLER_27_273
*884 FILLER_27_279
*885 FILLER_27_281
*886 FILLER_27_289
*887 FILLER_27_295
*888 FILLER_27_30
*889 FILLER_27_42
*890 FILLER_27_54
*891 FILLER_27_57
*892 FILLER_27_6
*893 FILLER_27_69
*894 FILLER_27_81
*895 FILLER_27_93
*896 FILLER_28_109
*897 FILLER_28_121
*898 FILLER_28_133
*899 FILLER_28_139
*900 FILLER_28_141
*901 FILLER_28_15
*902 FILLER_28_153
*903 FILLER_28_165
*904 FILLER_28_177
*905 FILLER_28_189
*906 FILLER_28_195
*907 FILLER_28_197
*908 FILLER_28_209
*909 FILLER_28_221
*910 FILLER_28_233
*911 FILLER_28_245
*912 FILLER_28_251
*913 FILLER_28_253
*914 FILLER_28_265
*915 FILLER_28_27
*916 FILLER_28_277
*917 FILLER_28_289
*918 FILLER_28_29
*919 FILLER_28_297
*920 FILLER_28_3
*921 FILLER_28_41
*922 FILLER_28_53
*923 FILLER_28_65
*924 FILLER_28_77
*925 FILLER_28_83
*926 FILLER_28_85
*927 FILLER_28_97
*928 FILLER_29_105
*929 FILLER_29_111
*930 FILLER_29_113
*931 FILLER_29_125
*932 FILLER_29_137
*933 FILLER_29_149
*934 FILLER_29_161
*935 FILLER_29_167
*936 FILLER_29_169
*937 FILLER_29_18
*938 FILLER_29_181
*939 FILLER_29_193
*940 FILLER_29_205
*941 FILLER_29_217
*942 FILLER_29_223
*943 FILLER_29_225
*944 FILLER_29_237
*945 FILLER_29_249
*946 FILLER_29_261
*947 FILLER_29_273
*948 FILLER_29_279
*949 FILLER_29_281
*950 FILLER_29_289
*951 FILLER_29_295
*952 FILLER_29_30
*953 FILLER_29_42
*954 FILLER_29_54
*955 FILLER_29_57
*956 FILLER_29_6
*957 FILLER_29_69
*958 FILLER_29_81
*959 FILLER_29_93
*960 FILLER_2_109
*961 FILLER_2_121
*962 FILLER_2_13
*963 FILLER_2_133
*964 FILLER_2_139
*965 FILLER_2_141
*966 FILLER_2_153
*967 FILLER_2_165
*968 FILLER_2_177
*969 FILLER_2_189
*970 FILLER_2_195
*971 FILLER_2_197
*972 FILLER_2_20
*973 FILLER_2_209
*974 FILLER_2_221
*975 FILLER_2_233
*976 FILLER_2_245
*977 FILLER_2_251
*978 FILLER_2_253
*979 FILLER_2_265
*980 FILLER_2_274
*981 FILLER_2_281
*982 FILLER_2_288
*983 FILLER_2_295
*984 FILLER_2_31
*985 FILLER_2_43
*986 FILLER_2_55
*987 FILLER_2_59
*988 FILLER_2_6
*989 FILLER_2_65
*990 FILLER_2_75
*991 FILLER_2_83
*992 FILLER_2_85
*993 FILLER_2_97
*994 FILLER_30_109
*995 FILLER_30_121
*996 FILLER_30_133
*997 FILLER_30_139
*998 FILLER_30_141
*999 FILLER_30_153
*1000 FILLER_30_165
*1001 FILLER_30_177
*1002 FILLER_30_18
*1003 FILLER_30_189
*1004 FILLER_30_195
*1005 FILLER_30_197
*1006 FILLER_30_209
*1007 FILLER_30_221
*1008 FILLER_30_233
*1009 FILLER_30_245
*1010 FILLER_30_251
*1011 FILLER_30_253
*1012 FILLER_30_26
*1013 FILLER_30_265
*1014 FILLER_30_277
*1015 FILLER_30_289
*1016 FILLER_30_29
*1017 FILLER_30_295
*1018 FILLER_30_41
*1019 FILLER_30_53
*1020 FILLER_30_6
*1021 FILLER_30_65
*1022 FILLER_30_77
*1023 FILLER_30_83
*1024 FILLER_30_85
*1025 FILLER_30_97
*1026 FILLER_31_105
*1027 FILLER_31_111
*1028 FILLER_31_113
*1029 FILLER_31_125
*1030 FILLER_31_137
*1031 FILLER_31_149
*1032 FILLER_31_161
*1033 FILLER_31_167
*1034 FILLER_31_169
*1035 FILLER_31_18
*1036 FILLER_31_181
*1037 FILLER_31_193
*1038 FILLER_31_205
*1039 FILLER_31_217
*1040 FILLER_31_223
*1041 FILLER_31_225
*1042 FILLER_31_237
*1043 FILLER_31_249
*1044 FILLER_31_261
*1045 FILLER_31_273
*1046 FILLER_31_279
*1047 FILLER_31_281
*1048 FILLER_31_289
*1049 FILLER_31_295
*1050 FILLER_31_30
*1051 FILLER_31_42
*1052 FILLER_31_54
*1053 FILLER_31_57
*1054 FILLER_31_6
*1055 FILLER_31_69
*1056 FILLER_31_81
*1057 FILLER_31_93
*1058 FILLER_32_109
*1059 FILLER_32_121
*1060 FILLER_32_133
*1061 FILLER_32_139
*1062 FILLER_32_141
*1063 FILLER_32_153
*1064 FILLER_32_165
*1065 FILLER_32_177
*1066 FILLER_32_18
*1067 FILLER_32_189
*1068 FILLER_32_195
*1069 FILLER_32_197
*1070 FILLER_32_209
*1071 FILLER_32_221
*1072 FILLER_32_233
*1073 FILLER_32_245
*1074 FILLER_32_251
*1075 FILLER_32_253
*1076 FILLER_32_26
*1077 FILLER_32_265
*1078 FILLER_32_277
*1079 FILLER_32_289
*1080 FILLER_32_29
*1081 FILLER_32_295
*1082 FILLER_32_41
*1083 FILLER_32_53
*1084 FILLER_32_6
*1085 FILLER_32_65
*1086 FILLER_32_77
*1087 FILLER_32_83
*1088 FILLER_32_85
*1089 FILLER_32_97
*1090 FILLER_33_105
*1091 FILLER_33_111
*1092 FILLER_33_113
*1093 FILLER_33_125
*1094 FILLER_33_137
*1095 FILLER_33_149
*1096 FILLER_33_15
*1097 FILLER_33_161
*1098 FILLER_33_167
*1099 FILLER_33_169
*1100 FILLER_33_181
*1101 FILLER_33_193
*1102 FILLER_33_205
*1103 FILLER_33_217
*1104 FILLER_33_223
*1105 FILLER_33_225
*1106 FILLER_33_237
*1107 FILLER_33_249
*1108 FILLER_33_261
*1109 FILLER_33_27
*1110 FILLER_33_273
*1111 FILLER_33_279
*1112 FILLER_33_281
*1113 FILLER_33_293
*1114 FILLER_33_3
*1115 FILLER_33_39
*1116 FILLER_33_51
*1117 FILLER_33_55
*1118 FILLER_33_57
*1119 FILLER_33_69
*1120 FILLER_33_81
*1121 FILLER_33_93
*1122 FILLER_34_109
*1123 FILLER_34_12
*1124 FILLER_34_121
*1125 FILLER_34_133
*1126 FILLER_34_139
*1127 FILLER_34_141
*1128 FILLER_34_153
*1129 FILLER_34_165
*1130 FILLER_34_177
*1131 FILLER_34_189
*1132 FILLER_34_195
*1133 FILLER_34_197
*1134 FILLER_34_209
*1135 FILLER_34_221
*1136 FILLER_34_233
*1137 FILLER_34_24
*1138 FILLER_34_245
*1139 FILLER_34_251
*1140 FILLER_34_253
*1141 FILLER_34_265
*1142 FILLER_34_277
*1143 FILLER_34_289
*1144 FILLER_34_29
*1145 FILLER_34_295
*1146 FILLER_34_41
*1147 FILLER_34_53
*1148 FILLER_34_6
*1149 FILLER_34_65
*1150 FILLER_34_77
*1151 FILLER_34_83
*1152 FILLER_34_85
*1153 FILLER_34_97
*1154 FILLER_35_105
*1155 FILLER_35_111
*1156 FILLER_35_113
*1157 FILLER_35_125
*1158 FILLER_35_137
*1159 FILLER_35_149
*1160 FILLER_35_161
*1161 FILLER_35_167
*1162 FILLER_35_169
*1163 FILLER_35_18
*1164 FILLER_35_181
*1165 FILLER_35_193
*1166 FILLER_35_205
*1167 FILLER_35_217
*1168 FILLER_35_223
*1169 FILLER_35_225
*1170 FILLER_35_237
*1171 FILLER_35_249
*1172 FILLER_35_261
*1173 FILLER_35_273
*1174 FILLER_35_279
*1175 FILLER_35_281
*1176 FILLER_35_289
*1177 FILLER_35_295
*1178 FILLER_35_30
*1179 FILLER_35_42
*1180 FILLER_35_54
*1181 FILLER_35_57
*1182 FILLER_35_6
*1183 FILLER_35_69
*1184 FILLER_35_81
*1185 FILLER_35_93
*1186 FILLER_36_109
*1187 FILLER_36_121
*1188 FILLER_36_133
*1189 FILLER_36_139
*1190 FILLER_36_141
*1191 FILLER_36_153
*1192 FILLER_36_165
*1193 FILLER_36_177
*1194 FILLER_36_18
*1195 FILLER_36_189
*1196 FILLER_36_195
*1197 FILLER_36_197
*1198 FILLER_36_209
*1199 FILLER_36_221
*1200 FILLER_36_233
*1201 FILLER_36_245
*1202 FILLER_36_251
*1203 FILLER_36_253
*1204 FILLER_36_26
*1205 FILLER_36_265
*1206 FILLER_36_277
*1207 FILLER_36_289
*1208 FILLER_36_29
*1209 FILLER_36_295
*1210 FILLER_36_41
*1211 FILLER_36_53
*1212 FILLER_36_6
*1213 FILLER_36_65
*1214 FILLER_36_77
*1215 FILLER_36_83
*1216 FILLER_36_85
*1217 FILLER_36_97
*1218 FILLER_37_105
*1219 FILLER_37_111
*1220 FILLER_37_113
*1221 FILLER_37_125
*1222 FILLER_37_137
*1223 FILLER_37_14
*1224 FILLER_37_149
*1225 FILLER_37_161
*1226 FILLER_37_167
*1227 FILLER_37_169
*1228 FILLER_37_181
*1229 FILLER_37_193
*1230 FILLER_37_20
*1231 FILLER_37_205
*1232 FILLER_37_217
*1233 FILLER_37_223
*1234 FILLER_37_225
*1235 FILLER_37_237
*1236 FILLER_37_249
*1237 FILLER_37_261
*1238 FILLER_37_273
*1239 FILLER_37_279
*1240 FILLER_37_281
*1241 FILLER_37_289
*1242 FILLER_37_295
*1243 FILLER_37_32
*1244 FILLER_37_44
*1245 FILLER_37_57
*1246 FILLER_37_69
*1247 FILLER_37_7
*1248 FILLER_37_81
*1249 FILLER_37_93
*1250 FILLER_38_109
*1251 FILLER_38_121
*1252 FILLER_38_133
*1253 FILLER_38_139
*1254 FILLER_38_141
*1255 FILLER_38_15
*1256 FILLER_38_153
*1257 FILLER_38_165
*1258 FILLER_38_177
*1259 FILLER_38_189
*1260 FILLER_38_195
*1261 FILLER_38_197
*1262 FILLER_38_209
*1263 FILLER_38_221
*1264 FILLER_38_233
*1265 FILLER_38_245
*1266 FILLER_38_251
*1267 FILLER_38_253
*1268 FILLER_38_265
*1269 FILLER_38_27
*1270 FILLER_38_277
*1271 FILLER_38_289
*1272 FILLER_38_29
*1273 FILLER_38_297
*1274 FILLER_38_3
*1275 FILLER_38_41
*1276 FILLER_38_53
*1277 FILLER_38_65
*1278 FILLER_38_77
*1279 FILLER_38_83
*1280 FILLER_38_85
*1281 FILLER_38_97
*1282 FILLER_39_105
*1283 FILLER_39_111
*1284 FILLER_39_113
*1285 FILLER_39_125
*1286 FILLER_39_137
*1287 FILLER_39_149
*1288 FILLER_39_161
*1289 FILLER_39_167
*1290 FILLER_39_169
*1291 FILLER_39_18
*1292 FILLER_39_181
*1293 FILLER_39_193
*1294 FILLER_39_205
*1295 FILLER_39_217
*1296 FILLER_39_223
*1297 FILLER_39_225
*1298 FILLER_39_237
*1299 FILLER_39_249
*1300 FILLER_39_261
*1301 FILLER_39_273
*1302 FILLER_39_279
*1303 FILLER_39_281
*1304 FILLER_39_289
*1305 FILLER_39_295
*1306 FILLER_39_30
*1307 FILLER_39_42
*1308 FILLER_39_54
*1309 FILLER_39_57
*1310 FILLER_39_6
*1311 FILLER_39_69
*1312 FILLER_39_81
*1313 FILLER_39_93
*1314 FILLER_3_105
*1315 FILLER_3_111
*1316 FILLER_3_113
*1317 FILLER_3_125
*1318 FILLER_3_13
*1319 FILLER_3_137
*1320 FILLER_3_149
*1321 FILLER_3_161
*1322 FILLER_3_167
*1323 FILLER_3_169
*1324 FILLER_3_181
*1325 FILLER_3_193
*1326 FILLER_3_20
*1327 FILLER_3_205
*1328 FILLER_3_217
*1329 FILLER_3_223
*1330 FILLER_3_225
*1331 FILLER_3_237
*1332 FILLER_3_249
*1333 FILLER_3_261
*1334 FILLER_3_273
*1335 FILLER_3_279
*1336 FILLER_3_281
*1337 FILLER_3_288
*1338 FILLER_3_295
*1339 FILLER_3_32
*1340 FILLER_3_44
*1341 FILLER_3_57
*1342 FILLER_3_6
*1343 FILLER_3_69
*1344 FILLER_3_81
*1345 FILLER_3_93
*1346 FILLER_40_109
*1347 FILLER_40_121
*1348 FILLER_40_133
*1349 FILLER_40_139
*1350 FILLER_40_141
*1351 FILLER_40_153
*1352 FILLER_40_165
*1353 FILLER_40_177
*1354 FILLER_40_18
*1355 FILLER_40_189
*1356 FILLER_40_195
*1357 FILLER_40_197
*1358 FILLER_40_209
*1359 FILLER_40_221
*1360 FILLER_40_233
*1361 FILLER_40_245
*1362 FILLER_40_251
*1363 FILLER_40_253
*1364 FILLER_40_26
*1365 FILLER_40_265
*1366 FILLER_40_277
*1367 FILLER_40_289
*1368 FILLER_40_29
*1369 FILLER_40_295
*1370 FILLER_40_41
*1371 FILLER_40_53
*1372 FILLER_40_6
*1373 FILLER_40_65
*1374 FILLER_40_77
*1375 FILLER_40_83
*1376 FILLER_40_85
*1377 FILLER_40_97
*1378 FILLER_41_105
*1379 FILLER_41_111
*1380 FILLER_41_113
*1381 FILLER_41_125
*1382 FILLER_41_137
*1383 FILLER_41_149
*1384 FILLER_41_161
*1385 FILLER_41_167
*1386 FILLER_41_169
*1387 FILLER_41_18
*1388 FILLER_41_181
*1389 FILLER_41_193
*1390 FILLER_41_205
*1391 FILLER_41_217
*1392 FILLER_41_223
*1393 FILLER_41_225
*1394 FILLER_41_237
*1395 FILLER_41_249
*1396 FILLER_41_261
*1397 FILLER_41_273
*1398 FILLER_41_279
*1399 FILLER_41_281
*1400 FILLER_41_285
*1401 FILLER_41_288
*1402 FILLER_41_295
*1403 FILLER_41_30
*1404 FILLER_41_42
*1405 FILLER_41_54
*1406 FILLER_41_57
*1407 FILLER_41_6
*1408 FILLER_41_69
*1409 FILLER_41_81
*1410 FILLER_41_93
*1411 FILLER_42_109
*1412 FILLER_42_12
*1413 FILLER_42_121
*1414 FILLER_42_133
*1415 FILLER_42_139
*1416 FILLER_42_141
*1417 FILLER_42_153
*1418 FILLER_42_165
*1419 FILLER_42_177
*1420 FILLER_42_189
*1421 FILLER_42_195
*1422 FILLER_42_197
*1423 FILLER_42_209
*1424 FILLER_42_221
*1425 FILLER_42_233
*1426 FILLER_42_24
*1427 FILLER_42_245
*1428 FILLER_42_251
*1429 FILLER_42_253
*1430 FILLER_42_265
*1431 FILLER_42_277
*1432 FILLER_42_288
*1433 FILLER_42_29
*1434 FILLER_42_295
*1435 FILLER_42_41
*1436 FILLER_42_53
*1437 FILLER_42_6
*1438 FILLER_42_65
*1439 FILLER_42_77
*1440 FILLER_42_83
*1441 FILLER_42_85
*1442 FILLER_42_97
*1443 FILLER_43_105
*1444 FILLER_43_111
*1445 FILLER_43_113
*1446 FILLER_43_125
*1447 FILLER_43_13
*1448 FILLER_43_137
*1449 FILLER_43_149
*1450 FILLER_43_161
*1451 FILLER_43_167
*1452 FILLER_43_169
*1453 FILLER_43_181
*1454 FILLER_43_193
*1455 FILLER_43_20
*1456 FILLER_43_205
*1457 FILLER_43_217
*1458 FILLER_43_223
*1459 FILLER_43_225
*1460 FILLER_43_237
*1461 FILLER_43_249
*1462 FILLER_43_261
*1463 FILLER_43_276
*1464 FILLER_43_281
*1465 FILLER_43_288
*1466 FILLER_43_295
*1467 FILLER_43_32
*1468 FILLER_43_44
*1469 FILLER_43_57
*1470 FILLER_43_6
*1471 FILLER_43_69
*1472 FILLER_43_81
*1473 FILLER_43_93
*1474 FILLER_44_109
*1475 FILLER_44_121
*1476 FILLER_44_13
*1477 FILLER_44_133
*1478 FILLER_44_139
*1479 FILLER_44_141
*1480 FILLER_44_153
*1481 FILLER_44_165
*1482 FILLER_44_177
*1483 FILLER_44_189
*1484 FILLER_44_195
*1485 FILLER_44_197
*1486 FILLER_44_20
*1487 FILLER_44_209
*1488 FILLER_44_221
*1489 FILLER_44_233
*1490 FILLER_44_245
*1491 FILLER_44_251
*1492 FILLER_44_253
*1493 FILLER_44_261
*1494 FILLER_44_265
*1495 FILLER_44_272
*1496 FILLER_44_279
*1497 FILLER_44_286
*1498 FILLER_44_290
*1499 FILLER_44_295
*1500 FILLER_44_31
*1501 FILLER_44_39
*1502 FILLER_44_42
*1503 FILLER_44_54
*1504 FILLER_44_57
*1505 FILLER_44_6
*1506 FILLER_44_69
*1507 FILLER_44_81
*1508 FILLER_44_85
*1509 FILLER_44_97
*1510 FILLER_45_101
*1511 FILLER_45_108
*1512 FILLER_45_113
*1513 FILLER_45_118
*1514 FILLER_45_125
*1515 FILLER_45_137
*1516 FILLER_45_14
*1517 FILLER_45_149
*1518 FILLER_45_161
*1519 FILLER_45_167
*1520 FILLER_45_169
*1521 FILLER_45_181
*1522 FILLER_45_188
*1523 FILLER_45_200
*1524 FILLER_45_21
*1525 FILLER_45_212
*1526 FILLER_45_225
*1527 FILLER_45_233
*1528 FILLER_45_237
*1529 FILLER_45_243
*1530 FILLER_45_255
*1531 FILLER_45_261
*1532 FILLER_45_265
*1533 FILLER_45_272
*1534 FILLER_45_28
*1535 FILLER_45_284
*1536 FILLER_45_290
*1537 FILLER_45_295
*1538 FILLER_45_35
*1539 FILLER_45_41
*1540 FILLER_45_45
*1541 FILLER_45_52
*1542 FILLER_45_60
*1543 FILLER_45_69
*1544 FILLER_45_7
*1545 FILLER_45_81
*1546 FILLER_45_93
*1547 FILLER_46_109
*1548 FILLER_46_117
*1549 FILLER_46_125
*1550 FILLER_46_129
*1551 FILLER_46_13
*1552 FILLER_46_136
*1553 FILLER_46_141
*1554 FILLER_46_146
*1555 FILLER_46_154
*1556 FILLER_46_160
*1557 FILLER_46_17
*1558 FILLER_46_172
*1559 FILLER_46_179
*1560 FILLER_46_186
*1561 FILLER_46_194
*1562 FILLER_46_200
*1563 FILLER_46_207
*1564 FILLER_46_214
*1565 FILLER_46_222
*1566 FILLER_46_228
*1567 FILLER_46_235
*1568 FILLER_46_24
*1569 FILLER_46_245
*1570 FILLER_46_251
*1571 FILLER_46_256
*1572 FILLER_46_263
*1573 FILLER_46_270
*1574 FILLER_46_276
*1575 FILLER_46_281
*1576 FILLER_46_29
*1577 FILLER_46_295
*1578 FILLER_46_34
*1579 FILLER_46_41
*1580 FILLER_46_49
*1581 FILLER_46_55
*1582 FILLER_46_57
*1583 FILLER_46_63
*1584 FILLER_46_69
*1585 FILLER_46_7
*1586 FILLER_46_73
*1587 FILLER_46_80
*1588 FILLER_46_85
*1589 FILLER_46_90
*1590 FILLER_46_97
*1591 FILLER_4_109
*1592 FILLER_4_121
*1593 FILLER_4_133
*1594 FILLER_4_139
*1595 FILLER_4_141
*1596 FILLER_4_153
*1597 FILLER_4_165
*1598 FILLER_4_177
*1599 FILLER_4_18
*1600 FILLER_4_189
*1601 FILLER_4_195
*1602 FILLER_4_197
*1603 FILLER_4_209
*1604 FILLER_4_221
*1605 FILLER_4_233
*1606 FILLER_4_245
*1607 FILLER_4_251
*1608 FILLER_4_253
*1609 FILLER_4_26
*1610 FILLER_4_265
*1611 FILLER_4_277
*1612 FILLER_4_288
*1613 FILLER_4_29
*1614 FILLER_4_295
*1615 FILLER_4_41
*1616 FILLER_4_53
*1617 FILLER_4_6
*1618 FILLER_4_65
*1619 FILLER_4_77
*1620 FILLER_4_83
*1621 FILLER_4_85
*1622 FILLER_4_97
*1623 FILLER_5_105
*1624 FILLER_5_111
*1625 FILLER_5_113
*1626 FILLER_5_125
*1627 FILLER_5_137
*1628 FILLER_5_149
*1629 FILLER_5_161
*1630 FILLER_5_167
*1631 FILLER_5_169
*1632 FILLER_5_18
*1633 FILLER_5_181
*1634 FILLER_5_193
*1635 FILLER_5_205
*1636 FILLER_5_217
*1637 FILLER_5_223
*1638 FILLER_5_225
*1639 FILLER_5_237
*1640 FILLER_5_249
*1641 FILLER_5_261
*1642 FILLER_5_273