*SPEF "ieee 1481-1999"
*DESIGN "uprj_w_const"
*DATE "11:11:11 Fri 11 11, 1111"
*VENDOR "OpenRCX"
*PROGRAM "Parallel Extraction"
*VERSION "1.0"
*DESIGN_FLOW "NAME_SCOPE LOCAL" "PIN_CAP NONE"
*DIVIDER /
*DELIMITER :
*BUS_DELIMITER []
*T_UNIT 1 NS
*C_UNIT 1 PF
*R_UNIT 1 OHM
*L_UNIT 1 HENRY

*NAME_MAP
*1 net171
*2 net35
*3 net36
*4 net37
*5 net38
*6 net39
*7 net40
*8 net41
*9 net42
*10 net43
*11 net44
*12 net172
*13 net45
*14 net46
*15 net47
*16 net48
*17 net49
*18 net50
*19 net51
*20 net52
*21 net53
*22 net54
*23 net173
*24 net55
*25 net56
*26 net57
*27 net58
*28 net59
*29 net60
*30 net61
*31 net62
*32 net63
*33 net64
*34 net174
*35 net65
*36 net66
*37 net67
*38 net68
*39 net69
*40 net70
*41 net71
*42 net72
*43 net73
*44 net74
*45 net175
*46 net75
*47 net76
*48 net77
*49 net78
*50 net79
*51 net80
*52 net81
*53 net82
*54 net83
*55 net84
*56 net176
*57 net85
*58 net86
*59 net87
*60 net88
*61 net89
*62 net90
*63 net91
*64 net92
*65 net93
*66 net94
*67 net177
*68 net95
*69 net96
*70 net97
*71 net98
*72 net99
*73 net100
*74 net101
*75 net102
*76 net103
*77 net104
*78 net32
*79 net105
*80 net106
*81 net107
*82 net33
*83 net34
*84 cw_clk_i
*85 cw_clk_o
*86 cw_dir
*87 cw_dir_b_o
*88 cw_dir_b_oo
*89 cw_dir_o
*90 cw_req_i
*91 cw_req_o
*92 cw_rst_i
*93 cw_rst_o
*94 i_pin_rst
*95 i_wb_rst
*96 io_oeb_15_0[0]
*97 io_oeb_15_0[10]
*98 io_oeb_15_0[11]
*99 io_oeb_15_0[12]
*100 io_oeb_15_0[13]
*101 io_oeb_15_0[14]
*102 io_oeb_15_0[15]
*103 io_oeb_15_0[1]
*104 io_oeb_15_0[2]
*105 io_oeb_15_0[3]
*106 io_oeb_15_0[4]
*107 io_oeb_15_0[5]
*108 io_oeb_15_0[6]
*109 io_oeb_15_0[7]
*110 io_oeb_15_0[8]
*111 io_oeb_15_0[9]
*112 net108
*113 net109
*114 net110
*115 net178
*116 net179
*117 net111
*118 net180
*119 net112
*120 net122
*121 net123
*122 net124
*123 net125
*124 net126
*125 net113
*126 net114
*127 net115
*128 net116
*129 net117
*130 net118
*131 net119
*132 net120
*133 net121
*134 net127
*135 net128
*136 net129
*137 net130
*138 net131
*139 net132
*140 net133
*141 net134
*142 net135
*143 net145
*144 net146
*145 net147
*146 net148
*147 net149
*148 net150
*149 net136
*150 net137
*151 net138
*152 net139
*153 net140
*154 net141
*155 net142
*156 net143
*157 net144
*158 net151
*159 net152
*160 net153
*161 la_datb_i[0]
*162 la_datb_i[1]
*163 la_datb_i[2]
*164 net154
*165 net155
*166 net156
*167 o_s_rst
*168 net181
*169 net166
*170 net167
*171 net168
*172 net169
*173 net170
*174 net157
*175 net158
*176 net159
*177 net160
*178 net161
*179 net162
*180 net163
*181 net164
*182 net165
*183 soft_rst
*186 _000_
*187 net1
*188 net10
*189 net11
*190 net12
*191 net13
*192 net14
*193 net15
*194 net16
*195 net17
*196 net18
*197 net19
*198 net2
*199 net20
*200 net21
*201 net22
*202 net23
*203 net24
*204 net25
*205 net26
*206 net27
*207 net28
*208 net29
*209 net3
*210 net30
*211 net31
*212 net4
*213 net5
*214 net6
*215 net7
*216 net8
*217 net9
*218 ANTENNA__001__A
*219 ANTENNA__155__A
*220 ANTENNA__156__A
*221 ANTENNA__157__A
*222 ANTENNA__158__A
*223 ANTENNA__159__A
*224 ANTENNA__160__A
*225 ANTENNA__161__A
*226 ANTENNA__162__A
*227 ANTENNA__163__A
*228 ANTENNA__164__A
*229 ANTENNA__165__A
*230 ANTENNA__166__A
*231 ANTENNA__167__A
*232 ANTENNA__168__A
*233 ANTENNA__169__A
*234 ANTENNA__170__A
*235 ANTENNA__171__A
*236 ANTENNA__172__A
*237 ANTENNA__173__A
*238 ANTENNA_input1_A
*239 ANTENNA_input2_A
*240 ANTENNA_input3_A
*241 ANTENNA_input4_A
*242 ANTENNA_input5_A
*243 ANTENNA_input6_A
*244 ANTENNA_input7_A
*245 ANTENNA_input8_A
*246 ANTENNA_output12_A
*247 ANTENNA_output13_A
*248 ANTENNA_output30_A
*249 ANTENNA_repeater31_A
*250 FILLER_0_108
*251 FILLER_0_113
*252 FILLER_0_118
*253 FILLER_0_126
*254 FILLER_0_13
*255 FILLER_0_138
*256 FILLER_0_145
*257 FILLER_0_149
*258 FILLER_0_154
*259 FILLER_0_160
*260 FILLER_0_164
*261 FILLER_0_169
*262 FILLER_0_174
*263 FILLER_0_181
*264 FILLER_0_192
*265 FILLER_0_197
*266 FILLER_0_202
*267 FILLER_0_210
*268 FILLER_0_222
*269 FILLER_0_229
*270 FILLER_0_236
*271 FILLER_0_24
*272 FILLER_0_243
*273 FILLER_0_251
*274 FILLER_0_256
*275 FILLER_0_263
*276 FILLER_0_270
*277 FILLER_0_278
*278 FILLER_0_281
*279 FILLER_0_286
*280 FILLER_0_29
*281 FILLER_0_293
*282 FILLER_0_300
*283 FILLER_0_309
*284 FILLER_0_314
*285 FILLER_0_321
*286 FILLER_0_329
*287 FILLER_0_335
*288 FILLER_0_337
*289 FILLER_0_34
*290 FILLER_0_349
*291 FILLER_0_356
*292 FILLER_0_365
*293 FILLER_0_370
*294 FILLER_0_377
*295 FILLER_0_384
*296 FILLER_0_393
*297 FILLER_0_403
*298 FILLER_0_41
*299 FILLER_0_52
*300 FILLER_0_57
*301 FILLER_0_6
*302 FILLER_0_62
*303 FILLER_0_69
*304 FILLER_0_81
*305 FILLER_0_89
*306 FILLER_0_93
*307 FILLER_0_97
*308 FILLER_10_109
*309 FILLER_10_121
*310 FILLER_10_133
*311 FILLER_10_139
*312 FILLER_10_141
*313 FILLER_10_153
*314 FILLER_10_165
*315 FILLER_10_177
*316 FILLER_10_18
*317 FILLER_10_189
*318 FILLER_10_195
*319 FILLER_10_197
*320 FILLER_10_209
*321 FILLER_10_221
*322 FILLER_10_233
*323 FILLER_10_245
*324 FILLER_10_251
*325 FILLER_10_253
*326 FILLER_10_26
*327 FILLER_10_265
*328 FILLER_10_277
*329 FILLER_10_289
*330 FILLER_10_29
*331 FILLER_10_301
*332 FILLER_10_307
*333 FILLER_10_309
*334 FILLER_10_321
*335 FILLER_10_333
*336 FILLER_10_345
*337 FILLER_10_357
*338 FILLER_10_363
*339 FILLER_10_365
*340 FILLER_10_377
*341 FILLER_10_389
*342 FILLER_10_401
*343 FILLER_10_41
*344 FILLER_10_53
*345 FILLER_10_6
*346 FILLER_10_65
*347 FILLER_10_77
*348 FILLER_10_83
*349 FILLER_10_85
*350 FILLER_10_97
*351 FILLER_11_105
*352 FILLER_11_111
*353 FILLER_11_113
*354 FILLER_11_125
*355 FILLER_11_137
*356 FILLER_11_149
*357 FILLER_11_15
*358 FILLER_11_161
*359 FILLER_11_167
*360 FILLER_11_169
*361 FILLER_11_181
*362 FILLER_11_193
*363 FILLER_11_205
*364 FILLER_11_217
*365 FILLER_11_223
*366 FILLER_11_225
*367 FILLER_11_237
*368 FILLER_11_249
*369 FILLER_11_261
*370 FILLER_11_27
*371 FILLER_11_273
*372 FILLER_11_279
*373 FILLER_11_281
*374 FILLER_11_293
*375 FILLER_11_3
*376 FILLER_11_305
*377 FILLER_11_317
*378 FILLER_11_329
*379 FILLER_11_335
*380 FILLER_11_337
*381 FILLER_11_349
*382 FILLER_11_361
*383 FILLER_11_373
*384 FILLER_11_385
*385 FILLER_11_39
*386 FILLER_11_391
*387 FILLER_11_393
*388 FILLER_11_399
*389 FILLER_11_403
*390 FILLER_11_51
*391 FILLER_11_55
*392 FILLER_11_57
*393 FILLER_11_69
*394 FILLER_11_81
*395 FILLER_11_93
*396 FILLER_12_109
*397 FILLER_12_121
*398 FILLER_12_133
*399 FILLER_12_139
*400 FILLER_12_141
*401 FILLER_12_153
*402 FILLER_12_165
*403 FILLER_12_177
*404 FILLER_12_18
*405 FILLER_12_189
*406 FILLER_12_195
*407 FILLER_12_197
*408 FILLER_12_209
*409 FILLER_12_221
*410 FILLER_12_233
*411 FILLER_12_245
*412 FILLER_12_251
*413 FILLER_12_253
*414 FILLER_12_26
*415 FILLER_12_265
*416 FILLER_12_277
*417 FILLER_12_289
*418 FILLER_12_29
*419 FILLER_12_301
*420 FILLER_12_307
*421 FILLER_12_309
*422 FILLER_12_321
*423 FILLER_12_333
*424 FILLER_12_345
*425 FILLER_12_357
*426 FILLER_12_363
*427 FILLER_12_365
*428 FILLER_12_377
*429 FILLER_12_389
*430 FILLER_12_397
*431 FILLER_12_403
*432 FILLER_12_41
*433 FILLER_12_53
*434 FILLER_12_6
*435 FILLER_12_65
*436 FILLER_12_77
*437 FILLER_12_83
*438 FILLER_12_85
*439 FILLER_12_97
*440 FILLER_13_105
*441 FILLER_13_111
*442 FILLER_13_113
*443 FILLER_13_125
*444 FILLER_13_137
*445 FILLER_13_149
*446 FILLER_13_15
*447 FILLER_13_161
*448 FILLER_13_167
*449 FILLER_13_169
*450 FILLER_13_181
*451 FILLER_13_193
*452 FILLER_13_205
*453 FILLER_13_217
*454 FILLER_13_223
*455 FILLER_13_225
*456 FILLER_13_237
*457 FILLER_13_249
*458 FILLER_13_261
*459 FILLER_13_27
*460 FILLER_13_273
*461 FILLER_13_279
*462 FILLER_13_281
*463 FILLER_13_293
*464 FILLER_13_3
*465 FILLER_13_305
*466 FILLER_13_317
*467 FILLER_13_329
*468 FILLER_13_335
*469 FILLER_13_337
*470 FILLER_13_349
*471 FILLER_13_361
*472 FILLER_13_373
*473 FILLER_13_385
*474 FILLER_13_39
*475 FILLER_13_391
*476 FILLER_13_393
*477 FILLER_13_405
*478 FILLER_13_51
*479 FILLER_13_55
*480 FILLER_13_57
*481 FILLER_13_69
*482 FILLER_13_81
*483 FILLER_13_93
*484 FILLER_14_109
*485 FILLER_14_121
*486 FILLER_14_133
*487 FILLER_14_139
*488 FILLER_14_141
*489 FILLER_14_153
*490 FILLER_14_165
*491 FILLER_14_177
*492 FILLER_14_18
*493 FILLER_14_189
*494 FILLER_14_195
*495 FILLER_14_197
*496 FILLER_14_209
*497 FILLER_14_221
*498 FILLER_14_233
*499 FILLER_14_245
*500 FILLER_14_251
*501 FILLER_14_253
*502 FILLER_14_26
*503 FILLER_14_265
*504 FILLER_14_277
*505 FILLER_14_289
*506 FILLER_14_29
*507 FILLER_14_301
*508 FILLER_14_307
*509 FILLER_14_309
*510 FILLER_14_321
*511 FILLER_14_333
*512 FILLER_14_345
*513 FILLER_14_357
*514 FILLER_14_363
*515 FILLER_14_365
*516 FILLER_14_377
*517 FILLER_14_389
*518 FILLER_14_397
*519 FILLER_14_403
*520 FILLER_14_41
*521 FILLER_14_53
*522 FILLER_14_6
*523 FILLER_14_65
*524 FILLER_14_77
*525 FILLER_14_83
*526 FILLER_14_85
*527 FILLER_14_97
*528 FILLER_15_105
*529 FILLER_15_111
*530 FILLER_15_113
*531 FILLER_15_125
*532 FILLER_15_13
*533 FILLER_15_137
*534 FILLER_15_149
*535 FILLER_15_161
*536 FILLER_15_167
*537 FILLER_15_169
*538 FILLER_15_181
*539 FILLER_15_193
*540 FILLER_15_205
*541 FILLER_15_217
*542 FILLER_15_223
*543 FILLER_15_225
*544 FILLER_15_237
*545 FILLER_15_249
*546 FILLER_15_25
*547 FILLER_15_261
*548 FILLER_15_273
*549 FILLER_15_279
*550 FILLER_15_281
*551 FILLER_15_293
*552 FILLER_15_305
*553 FILLER_15_317
*554 FILLER_15_329
*555 FILLER_15_335
*556 FILLER_15_337
*557 FILLER_15_349
*558 FILLER_15_361
*559 FILLER_15_37
*560 FILLER_15_373
*561 FILLER_15_385
*562 FILLER_15_391
*563 FILLER_15_393
*564 FILLER_15_405
*565 FILLER_15_49
*566 FILLER_15_55
*567 FILLER_15_57
*568 FILLER_15_69
*569 FILLER_15_81
*570 FILLER_15_93
*571 FILLER_16_109
*572 FILLER_16_121
*573 FILLER_16_133
*574 FILLER_16_139
*575 FILLER_16_141
*576 FILLER_16_153
*577 FILLER_16_165
*578 FILLER_16_17
*579 FILLER_16_177
*580 FILLER_16_189
*581 FILLER_16_195
*582 FILLER_16_197
*583 FILLER_16_209
*584 FILLER_16_221
*585 FILLER_16_233
*586 FILLER_16_245
*587 FILLER_16_25
*588 FILLER_16_251
*589 FILLER_16_253
*590 FILLER_16_265
*591 FILLER_16_277
*592 FILLER_16_289
*593 FILLER_16_29
*594 FILLER_16_301
*595 FILLER_16_307
*596 FILLER_16_309
*597 FILLER_16_321
*598 FILLER_16_333
*599 FILLER_16_345
*600 FILLER_16_357
*601 FILLER_16_363
*602 FILLER_16_365
*603 FILLER_16_377
*604 FILLER_16_389
*605 FILLER_16_397
*606 FILLER_16_403
*607 FILLER_16_41
*608 FILLER_16_5
*609 FILLER_16_53
*610 FILLER_16_65
*611 FILLER_16_77
*612 FILLER_16_83
*613 FILLER_16_85
*614 FILLER_16_97
*615 FILLER_17_105
*616 FILLER_17_111
*617 FILLER_17_113
*618 FILLER_17_125
*619 FILLER_17_137
*620 FILLER_17_149
*621 FILLER_17_15
*622 FILLER_17_161
*623 FILLER_17_167
*624 FILLER_17_169
*625 FILLER_17_181
*626 FILLER_17_193
*627 FILLER_17_205
*628 FILLER_17_217
*629 FILLER_17_223
*630 FILLER_17_225
*631 FILLER_17_237
*632 FILLER_17_249
*633 FILLER_17_261
*634 FILLER_17_27
*635 FILLER_17_273
*636 FILLER_17_279
*637 FILLER_17_281
*638 FILLER_17_293
*639 FILLER_17_3
*640 FILLER_17_305
*641 FILLER_17_317
*642 FILLER_17_329
*643 FILLER_17_335
*644 FILLER_17_337
*645 FILLER_17_349
*646 FILLER_17_361
*647 FILLER_17_373
*648 FILLER_17_385
*649 FILLER_17_39
*650 FILLER_17_391
*651 FILLER_17_393
*652 FILLER_17_399
*653 FILLER_17_403
*654 FILLER_17_51
*655 FILLER_17_55
*656 FILLER_17_57
*657 FILLER_17_69
*658 FILLER_17_81
*659 FILLER_17_93
*660 FILLER_18_109
*661 FILLER_18_121
*662 FILLER_18_133
*663 FILLER_18_139
*664 FILLER_18_141
*665 FILLER_18_15
*666 FILLER_18_153
*667 FILLER_18_165
*668 FILLER_18_177
*669 FILLER_18_189
*670 FILLER_18_195
*671 FILLER_18_197
*672 FILLER_18_209
*673 FILLER_18_221
*674 FILLER_18_233
*675 FILLER_18_245
*676 FILLER_18_251
*677 FILLER_18_253
*678 FILLER_18_265
*679 FILLER_18_27
*680 FILLER_18_277
*681 FILLER_18_289
*682 FILLER_18_29
*683 FILLER_18_3
*684 FILLER_18_301
*685 FILLER_18_307
*686 FILLER_18_309
*687 FILLER_18_321
*688 FILLER_18_333
*689 FILLER_18_345
*690 FILLER_18_357
*691 FILLER_18_363
*692 FILLER_18_365
*693 FILLER_18_377
*694 FILLER_18_389
*695 FILLER_18_397
*696 FILLER_18_403
*697 FILLER_18_41
*698 FILLER_18_53
*699 FILLER_18_65
*700 FILLER_18_77
*701 FILLER_18_83
*702 FILLER_18_85
*703 FILLER_18_97
*704 FILLER_19_105
*705 FILLER_19_111
*706 FILLER_19_113
*707 FILLER_19_125
*708 FILLER_19_137
*709 FILLER_19_149
*710 FILLER_19_161
*711 FILLER_19_167
*712 FILLER_19_169
*713 FILLER_19_18
*714 FILLER_19_181
*715 FILLER_19_193
*716 FILLER_19_205
*717 FILLER_19_217
*718 FILLER_19_223
*719 FILLER_19_225
*720 FILLER_19_237
*721 FILLER_19_249
*722 FILLER_19_261
*723 FILLER_19_273
*724 FILLER_19_279
*725 FILLER_19_281
*726 FILLER_19_293
*727 FILLER_19_30
*728 FILLER_19_305
*729 FILLER_19_317
*730 FILLER_19_329
*731 FILLER_19_335
*732 FILLER_19_337
*733 FILLER_19_349
*734 FILLER_19_361
*735 FILLER_19_373
*736 FILLER_19_385
*737 FILLER_19_391
*738 FILLER_19_395
*739 FILLER_19_402
*740 FILLER_19_406
*741 FILLER_19_42
*742 FILLER_19_54
*743 FILLER_19_57
*744 FILLER_19_6
*745 FILLER_19_69
*746 FILLER_19_81
*747 FILLER_19_93
*748 FILLER_1_106
*749 FILLER_1_113
*750 FILLER_1_125
*751 FILLER_1_129
*752 FILLER_1_13
*753 FILLER_1_136
*754 FILLER_1_142
*755 FILLER_1_146
*756 FILLER_1_158
*757 FILLER_1_166
*758 FILLER_1_169
*759 FILLER_1_181
*760 FILLER_1_193
*761 FILLER_1_20
*762 FILLER_1_201
*763 FILLER_1_206
*764 FILLER_1_213
*765 FILLER_1_220
*766 FILLER_1_227
*767 FILLER_1_239
*768 FILLER_1_251
*769 FILLER_1_263
*770 FILLER_1_272
*771 FILLER_1_281
*772 FILLER_1_293
*773 FILLER_1_305
*774 FILLER_1_317
*775 FILLER_1_32
*776 FILLER_1_321
*777 FILLER_1_325
*778 FILLER_1_331
*779 FILLER_1_335
*780 FILLER_1_339
*781 FILLER_1_351
*782 FILLER_1_356
*783 FILLER_1_364
*784 FILLER_1_368
*785 FILLER_1_374
*786 FILLER_1_381
*787 FILLER_1_388
*788 FILLER_1_393
*789 FILLER_1_403
*790 FILLER_1_44
*791 FILLER_1_57
*792 FILLER_1_6
*793 FILLER_1_69
*794 FILLER_1_73
*795 FILLER_1_80
*796 FILLER_1_87
*797 FILLER_1_94
*798 FILLER_20_109
*799 FILLER_20_121
*800 FILLER_20_133
*801 FILLER_20_139
*802 FILLER_20_141
*803 FILLER_20_153
*804 FILLER_20_165
*805 FILLER_20_177
*806 FILLER_20_18
*807 FILLER_20_189
*808 FILLER_20_195
*809 FILLER_20_197
*810 FILLER_20_209
*811 FILLER_20_221
*812 FILLER_20_233
*813 FILLER_20_245
*814 FILLER_20_251
*815 FILLER_20_253
*816 FILLER_20_26
*817 FILLER_20_265
*818 FILLER_20_277
*819 FILLER_20_289
*820 FILLER_20_29
*821 FILLER_20_301
*822 FILLER_20_307
*823 FILLER_20_309
*824 FILLER_20_321
*825 FILLER_20_333
*826 FILLER_20_345
*827 FILLER_20_357
*828 FILLER_20_363
*829 FILLER_20_365
*830 FILLER_20_377
*831 FILLER_20_389
*832 FILLER_20_397
*833 FILLER_20_403
*834 FILLER_20_41
*835 FILLER_20_53
*836 FILLER_20_6
*837 FILLER_20_65
*838 FILLER_20_77
*839 FILLER_20_83
*840 FILLER_20_85
*841 FILLER_20_97
*842 FILLER_21_105
*843 FILLER_21_111
*844 FILLER_21_113
*845 FILLER_21_125
*846 FILLER_21_137
*847 FILLER_21_149
*848 FILLER_21_15
*849 FILLER_21_161
*850 FILLER_21_167
*851 FILLER_21_169
*852 FILLER_21_181
*853 FILLER_21_193
*854 FILLER_21_205
*855 FILLER_21_217
*856 FILLER_21_223
*857 FILLER_21_225
*858 FILLER_21_237
*859 FILLER_21_249
*860 FILLER_21_261
*861 FILLER_21_27
*862 FILLER_21_273
*863 FILLER_21_279
*864 FILLER_21_281
*865 FILLER_21_293
*866 FILLER_21_3
*867 FILLER_21_305
*868 FILLER_21_317
*869 FILLER_21_329
*870 FILLER_21_335
*871 FILLER_21_337
*872 FILLER_21_349
*873 FILLER_21_361
*874 FILLER_21_373
*875 FILLER_21_385
*876 FILLER_21_39
*877 FILLER_21_391
*878 FILLER_21_393
*879 FILLER_21_405
*880 FILLER_21_51
*881 FILLER_21_55
*882 FILLER_21_57
*883 FILLER_21_69
*884 FILLER_21_81
*885 FILLER_21_93
*886 FILLER_22_109
*887 FILLER_22_121
*888 FILLER_22_133
*889 FILLER_22_139
*890 FILLER_22_141
*891 FILLER_22_153
*892 FILLER_22_165
*893 FILLER_22_177
*894 FILLER_22_18
*895 FILLER_22_189
*896 FILLER_22_195
*897 FILLER_22_197
*898 FILLER_22_209
*899 FILLER_22_221
*900 FILLER_22_233
*901 FILLER_22_245
*902 FILLER_22_251
*903 FILLER_22_253
*904 FILLER_22_26
*905 FILLER_22_265
*906 FILLER_22_277
*907 FILLER_22_289
*908 FILLER_22_29
*909 FILLER_22_301
*910 FILLER_22_307
*911 FILLER_22_309
*912 FILLER_22_321
*913 FILLER_22_333
*914 FILLER_22_345
*915 FILLER_22_357
*916 FILLER_22_363
*917 FILLER_22_365
*918 FILLER_22_377
*919 FILLER_22_389
*920 FILLER_22_397
*921 FILLER_22_403
*922 FILLER_22_41
*923 FILLER_22_53
*924 FILLER_22_6
*925 FILLER_22_65
*926 FILLER_22_77
*927 FILLER_22_83
*928 FILLER_22_85
*929 FILLER_22_97
*930 FILLER_23_105
*931 FILLER_23_111
*932 FILLER_23_113
*933 FILLER_23_125
*934 FILLER_23_137
*935 FILLER_23_149
*936 FILLER_23_15
*937 FILLER_23_161
*938 FILLER_23_167
*939 FILLER_23_169
*940 FILLER_23_181
*941 FILLER_23_193
*942 FILLER_23_205
*943 FILLER_23_217
*944 FILLER_23_223
*945 FILLER_23_225
*946 FILLER_23_237
*947 FILLER_23_249
*948 FILLER_23_261
*949 FILLER_23_27
*950 FILLER_23_273
*951 FILLER_23_279
*952 FILLER_23_281
*953 FILLER_23_293
*954 FILLER_23_3
*955 FILLER_23_305
*956 FILLER_23_317
*957 FILLER_23_329
*958 FILLER_23_335
*959 FILLER_23_337
*960 FILLER_23_349
*961 FILLER_23_361
*962 FILLER_23_373
*963 FILLER_23_385
*964 FILLER_23_39
*965 FILLER_23_391
*966 FILLER_23_393
*967 FILLER_23_405
*968 FILLER_23_51
*969 FILLER_23_55
*970 FILLER_23_57
*971 FILLER_23_69
*972 FILLER_23_81
*973 FILLER_23_93
*974 FILLER_24_109
*975 FILLER_24_121
*976 FILLER_24_133
*977 FILLER_24_139
*978 FILLER_24_141
*979 FILLER_24_153
*980 FILLER_24_165
*981 FILLER_24_177
*982 FILLER_24_18
*983 FILLER_24_189
*984 FILLER_24_195
*985 FILLER_24_197
*986 FILLER_24_209
*987 FILLER_24_221
*988 FILLER_24_233
*989 FILLER_24_245
*990 FILLER_24_251
*991 FILLER_24_253
*992 FILLER_24_26
*993 FILLER_24_265
*994 FILLER_24_277
*995 FILLER_24_289
*996 FILLER_24_29
*997 FILLER_24_301
*998 FILLER_24_307
*999 FILLER_24_309
*1000 FILLER_24_321
*1001 FILLER_24_333
*1002 FILLER_24_345
*1003 FILLER_24_357
*1004 FILLER_24_363
*1005 FILLER_24_365
*1006 FILLER_24_377
*1007 FILLER_24_389
*1008 FILLER_24_397
*1009 FILLER_24_403
*1010 FILLER_24_41
*1011 FILLER_24_53
*1012 FILLER_24_6
*1013 FILLER_24_65
*1014 FILLER_24_77
*1015 FILLER_24_83
*1016 FILLER_24_85
*1017 FILLER_24_97
*1018 FILLER_25_105
*1019 FILLER_25_111
*1020 FILLER_25_113
*1021 FILLER_25_125
*1022 FILLER_25_137
*1023 FILLER_25_149
*1024 FILLER_25_161
*1025 FILLER_25_167
*1026 FILLER_25_169
*1027 FILLER_25_18
*1028 FILLER_25_181
*1029 FILLER_25_193
*1030 FILLER_25_205
*1031 FILLER_25_217
*1032 FILLER_25_223
*1033 FILLER_25_225
*1034 FILLER_25_237
*1035 FILLER_25_249
*1036 FILLER_25_261
*1037 FILLER_25_273
*1038 FILLER_25_279
*1039 FILLER_25_281
*1040 FILLER_25_293
*1041 FILLER_25_30
*1042 FILLER_25_305
*1043 FILLER_25_317
*1044 FILLER_25_329
*1045 FILLER_25_335
*1046 FILLER_25_337
*1047 FILLER_25_349
*1048 FILLER_25_361
*1049 FILLER_25_373
*1050 FILLER_25_385
*1051 FILLER_25_391
*1052 FILLER_25_393
*1053 FILLER_25_399
*1054 FILLER_25_403
*1055 FILLER_25_42
*1056 FILLER_25_54
*1057 FILLER_25_57
*1058 FILLER_25_6
*1059 FILLER_25_69
*1060 FILLER_25_81
*1061 FILLER_25_93
*1062 FILLER_26_109
*1063 FILLER_26_121
*1064 FILLER_26_133
*1065 FILLER_26_139
*1066 FILLER_26_141
*1067 FILLER_26_15
*1068 FILLER_26_153
*1069 FILLER_26_165
*1070 FILLER_26_177
*1071 FILLER_26_189
*1072 FILLER_26_195
*1073 FILLER_26_197
*1074 FILLER_26_209
*1075 FILLER_26_221
*1076 FILLER_26_233
*1077 FILLER_26_245
*1078 FILLER_26_251
*1079 FILLER_26_253
*1080 FILLER_26_265
*1081 FILLER_26_27
*1082 FILLER_26_277
*1083 FILLER_26_289
*1084 FILLER_26_29
*1085 FILLER_26_3
*1086 FILLER_26_301
*1087 FILLER_26_307
*1088 FILLER_26_309
*1089 FILLER_26_321
*1090 FILLER_26_333
*1091 FILLER_26_345
*1092 FILLER_26_357
*1093 FILLER_26_363
*1094 FILLER_26_365
*1095 FILLER_26_377
*1096 FILLER_26_389
*1097 FILLER_26_401
*1098 FILLER_26_41
*1099 FILLER_26_53
*1100 FILLER_26_65
*1101 FILLER_26_77
*1102 FILLER_26_83
*1103 FILLER_26_85
*1104 FILLER_26_97
*1105 FILLER_27_105
*1106 FILLER_27_111
*1107 FILLER_27_113
*1108 FILLER_27_125
*1109 FILLER_27_137
*1110 FILLER_27_149
*1111 FILLER_27_161
*1112 FILLER_27_167
*1113 FILLER_27_169
*1114 FILLER_27_18
*1115 FILLER_27_181
*1116 FILLER_27_193
*1117 FILLER_27_205
*1118 FILLER_27_217
*1119 FILLER_27_223
*1120 FILLER_27_225
*1121 FILLER_27_237
*1122 FILLER_27_249
*1123 FILLER_27_261
*1124 FILLER_27_273
*1125 FILLER_27_279
*1126 FILLER_27_281
*1127 FILLER_27_293
*1128 FILLER_27_30
*1129 FILLER_27_305
*1130 FILLER_27_317
*1131 FILLER_27_329
*1132 FILLER_27_335
*1133 FILLER_27_337
*1134 FILLER_27_349
*1135 FILLER_27_361
*1136 FILLER_27_373
*1137 FILLER_27_385
*1138 FILLER_27_391
*1139 FILLER_27_393
*1140 FILLER_27_399
*1141 FILLER_27_403
*1142 FILLER_27_42
*1143 FILLER_27_54
*1144 FILLER_27_57
*1145 FILLER_27_6
*1146 FILLER_27_69
*1147 FILLER_27_81
*1148 FILLER_27_93
*1149 FILLER_28_109
*1150 FILLER_28_121
*1151 FILLER_28_133
*1152 FILLER_28_139
*1153 FILLER_28_141
*1154 FILLER_28_15
*1155 FILLER_28_153
*1156 FILLER_28_165
*1157 FILLER_28_177
*1158 FILLER_28_189
*1159 FILLER_28_195
*1160 FILLER_28_197
*1161 FILLER_28_209
*1162 FILLER_28_221
*1163 FILLER_28_233
*1164 FILLER_28_245
*1165 FILLER_28_251
*1166 FILLER_28_253
*1167 FILLER_28_265
*1168 FILLER_28_27
*1169 FILLER_28_277
*1170 FILLER_28_289
*1171 FILLER_28_29
*1172 FILLER_28_3
*1173 FILLER_28_301
*1174 FILLER_28_307
*1175 FILLER_28_309
*1176 FILLER_28_321
*1177 FILLER_28_333
*1178 FILLER_28_345
*1179 FILLER_28_357
*1180 FILLER_28_363
*1181 FILLER_28_365
*1182 FILLER_28_377
*1183 FILLER_28_389
*1184 FILLER_28_401
*1185 FILLER_28_41
*1186 FILLER_28_53
*1187 FILLER_28_65
*1188 FILLER_28_77
*1189 FILLER_28_83
*1190 FILLER_28_85
*1191 FILLER_28_97
*1192 FILLER_29_105
*1193 FILLER_29_111
*1194 FILLER_29_113
*1195 FILLER_29_125
*1196 FILLER_29_137
*1197 FILLER_29_149
*1198 FILLER_29_161
*1199 FILLER_29_167
*1200 FILLER_29_169
*1201 FILLER_29_18
*1202 FILLER_29_181
*1203 FILLER_29_193
*1204 FILLER_29_205
*1205 FILLER_29_217
*1206 FILLER_29_223
*1207 FILLER_29_225
*1208 FILLER_29_237
*1209 FILLER_29_249
*1210 FILLER_29_261
*1211 FILLER_29_273
*1212 FILLER_29_279
*1213 FILLER_29_281
*1214 FILLER_29_293
*1215 FILLER_29_30
*1216 FILLER_29_305
*1217 FILLER_29_317
*1218 FILLER_29_329
*1219 FILLER_29_335
*1220 FILLER_29_337
*1221 FILLER_29_349
*1222 FILLER_29_361
*1223 FILLER_29_373
*1224 FILLER_29_385
*1225 FILLER_29_391
*1226 FILLER_29_393
*1227 FILLER_29_399
*1228 FILLER_29_403
*1229 FILLER_29_42
*1230 FILLER_29_54
*1231 FILLER_29_57
*1232 FILLER_29_6
*1233 FILLER_29_69
*1234 FILLER_29_81
*1235 FILLER_29_93
*1236 FILLER_2_109
*1237 FILLER_2_12
*1238 FILLER_2_121
*1239 FILLER_2_133
*1240 FILLER_2_139
*1241 FILLER_2_141
*1242 FILLER_2_153
*1243 FILLER_2_165
*1244 FILLER_2_177
*1245 FILLER_2_189
*1246 FILLER_2_195
*1247 FILLER_2_197
*1248 FILLER_2_209
*1249 FILLER_2_215
*1250 FILLER_2_227
*1251 FILLER_2_239
*1252 FILLER_2_24
*1253 FILLER_2_251
*1254 FILLER_2_253
*1255 FILLER_2_265
*1256 FILLER_2_277
*1257 FILLER_2_289
*1258 FILLER_2_29
*1259 FILLER_2_301
*1260 FILLER_2_307
*1261 FILLER_2_309
*1262 FILLER_2_321
*1263 FILLER_2_333
*1264 FILLER_2_345
*1265 FILLER_2_357
*1266 FILLER_2_363
*1267 FILLER_2_365
*1268 FILLER_2_377
*1269 FILLER_2_381
*1270 FILLER_2_388
*1271 FILLER_2_395
*1272 FILLER_2_403
*1273 FILLER_2_41
*1274 FILLER_2_53
*1275 FILLER_2_6
*1276 FILLER_2_65
*1277 FILLER_2_77
*1278 FILLER_2_83
*1279 FILLER_2_85
*1280 FILLER_2_97
*1281 FILLER_30_109
*1282 FILLER_30_121
*1283 FILLER_30_133
*1284 FILLER_30_139
*1285 FILLER_30_141
*1286 FILLER_30_153
*1287 FILLER_30_165
*1288 FILLER_30_177
*1289 FILLER_30_18
*1290 FILLER_30_189
*1291 FILLER_30_195
*1292 FILLER_30_197
*1293 FILLER_30_209
*1294 FILLER_30_221
*1295 FILLER_30_233
*1296 FILLER_30_245
*1297 FILLER_30_251
*1298 FILLER_30_253
*1299 FILLER_30_26
*1300 FILLER_30_265
*1301 FILLER_30_277
*1302 FILLER_30_289
*1303 FILLER_30_29
*1304 FILLER_30_301
*1305 FILLER_30_307
*1306 FILLER_30_309
*1307 FILLER_30_321
*1308 FILLER_30_333
*1309 FILLER_30_345
*1310 FILLER_30_357
*1311 FILLER_30_363
*1312 FILLER_30_365
*1313 FILLER_30_377
*1314 FILLER_30_389
*1315 FILLER_30_393
*1316 FILLER_30_396
*1317 FILLER_30_403
*1318 FILLER_30_41
*1319 FILLER_30_53
*1320 FILLER_30_6
*1321 FILLER_30_65
*1322 FILLER_30_77
*1323 FILLER_30_83
*1324 FILLER_30_85
*1325 FILLER_30_97
*1326 FILLER_31_105
*1327 FILLER_31_111
*1328 FILLER_31_113
*1329 FILLER_31_125
*1330 FILLER_31_137
*1331 FILLER_31_149
*1332 FILLER_31_15
*1333 FILLER_31_161
*1334 FILLER_31_167
*1335 FILLER_31_169
*1336 FILLER_31_181
*1337 FILLER_31_193
*1338 FILLER_31_205
*1339 FILLER_31_217
*1340 FILLER_31_223
*1341 FILLER_31_225
*1342 FILLER_31_237
*1343 FILLER_31_249
*1344 FILLER_31_261
*1345 FILLER_31_27
*1346 FILLER_31_273
*1347 FILLER_31_279
*1348 FILLER_31_281
*1349 FILLER_31_293
*1350 FILLER_31_3
*1351 FILLER_31_305
*1352 FILLER_31_317
*1353 FILLER_31_329
*1354 FILLER_31_335
*1355 FILLER_31_337
*1356 FILLER_31_349
*1357 FILLER_31_361
*1358 FILLER_31_373
*1359 FILLER_31_385
*1360 FILLER_31_39
*1361 FILLER_31_391
*1362 FILLER_31_393
*1363 FILLER_31_405
*1364 FILLER_31_51
*1365 FILLER_31_55
*1366 FILLER_31_57
*1367 FILLER_31_69
*1368 FILLER_31_81
*1369 FILLER_31_93
*1370 FILLER_32_109
*1371 FILLER_32_121
*1372 FILLER_32_133
*1373 FILLER_32_139
*1374 FILLER_32_141
*1375 FILLER_32_153
*1376 FILLER_32_165
*1377 FILLER_32_177
*1378 FILLER_32_18
*1379 FILLER_32_189
*1380 FILLER_32_195
*1381 FILLER_32_197
*1382 FILLER_32_207
*1383 FILLER_32_213
*1384 FILLER_32_225
*1385 FILLER_32_237
*1386 FILLER_32_249
*1387 FILLER_32_253
*1388 FILLER_32_26
*1389 FILLER_32_265
*1390 FILLER_32_275
*1391 FILLER_32_284
*1392 FILLER_32_29
*1393 FILLER_32_296
*1394 FILLER_32_309
*1395 FILLER_32_321
*1396 FILLER_32_333
*1397 FILLER_32_345
*1398 FILLER_32_357
*1399 FILLER_32_363
*1400 FILLER_32_365
*1401 FILLER_32_377
*1402 FILLER_32_389
*1403 FILLER_32_393
*1404 FILLER_32_396
*1405 FILLER_32_403
*1406 FILLER_32_41
*1407 FILLER_32_53
*1408 FILLER_32_6
*1409 FILLER_32_65
*1410 FILLER_32_77
*1411 FILLER_32_83
*1412 FILLER_32_85
*1413 FILLER_32_97
*1414 FILLER_33_10
*1415 FILLER_33_105
*1416 FILLER_33_111
*1417 FILLER_33_113
*1418 FILLER_33_125
*1419 FILLER_33_137
*1420 FILLER_33_149
*1421 FILLER_33_16
*1422 FILLER_33_161
*1423 FILLER_33_167
*1424 FILLER_33_169
*1425 FILLER_33_181
*1426 FILLER_33_193
*1427 FILLER_33_201
*1428 FILLER_33_207
*1429 FILLER_33_213
*1430 FILLER_33_221
*1431 FILLER_33_225
*1432 FILLER_33_237
*1433 FILLER_33_249
*1434 FILLER_33_261
*1435 FILLER_33_273
*1436 FILLER_33_279
*1437 FILLER_33_28
*1438 FILLER_33_281
*1439 FILLER_33_292
*1440 FILLER_33_3
*1441 FILLER_33_304
*1442 FILLER_33_316
*1443 FILLER_33_328
*1444 FILLER_33_337
*1445 FILLER_33_349
*1446 FILLER_33_361
*1447 FILLER_33_373
*1448 FILLER_33_385
*1449 FILLER_33_391
*1450 FILLER_33_393
*1451 FILLER_33_399
*1452 FILLER_33_40
*1453 FILLER_33_403
*1454 FILLER_33_52
*1455 FILLER_33_57
*1456 FILLER_33_69
*1457 FILLER_33_81
*1458 FILLER_33_93
*1459 FILLER_34_109
*1460 FILLER_34_121
*1461 FILLER_34_133
*1462 FILLER_34_139
*1463 FILLER_34_141
*1464 FILLER_34_153
*1465 FILLER_34_165
*1466 FILLER_34_177
*1467 FILLER_34_189
*1468 FILLER_34_19
*1469 FILLER_34_195
*1470 FILLER_34_197
*1471 FILLER_34_209
*1472 FILLER_34_221
*1473 FILLER_34_233
*1474 FILLER_34_245
*1475 FILLER_34_251
*1476 FILLER_34_253
*1477 FILLER_34_265
*1478 FILLER_34_27
*1479 FILLER_34_277
*1480 FILLER_34_289
*1481 FILLER_34_29
*1482 FILLER_34_301
*1483 FILLER_34_307
*1484 FILLER_34_309
*1485 FILLER_34_321
*1486 FILLER_34_333
*1487 FILLER_34_345
*1488 FILLER_34_357
*1489 FILLER_34_363
*1490 FILLER_34_365
*1491 FILLER_34_377
*1492 FILLER_34_389
*1493 FILLER_34_395
*1494 FILLER_34_402
*1495 FILLER_34_406
*1496 FILLER_34_41
*1497 FILLER_34_53
*1498 FILLER_34_65
*1499 FILLER_34_7
*1500 FILLER_34_77
*1501 FILLER_34_83
*1502 FILLER_34_85
*1503 FILLER_34_97
*1504 FILLER_35_105
*1505 FILLER_35_111
*1506 FILLER_35_113
*1507 FILLER_35_125
*1508 FILLER_35_137
*1509 FILLER_35_149
*1510 FILLER_35_161
*1511 FILLER_35_167
*1512 FILLER_35_169
*1513 FILLER_35_18
*1514 FILLER_35_181
*1515 FILLER_35_193
*1516 FILLER_35_205
*1517 FILLER_35_217
*1518 FILLER_35_223
*1519 FILLER_35_225
*1520 FILLER_35_237
*1521 FILLER_35_249
*1522 FILLER_35_261
*1523 FILLER_35_273
*1524 FILLER_35_279
*1525 FILLER_35_281
*1526 FILLER_35_293
*1527 FILLER_35_30
*1528 FILLER_35_305
*1529 FILLER_35_317
*1530 FILLER_35_329
*1531 FILLER_35_335
*1532 FILLER_35_337
*1533 FILLER_35_349
*1534 FILLER_35_361
*1535 FILLER_35_373
*1536 FILLER_35_385
*1537 FILLER_35_391
*1538 FILLER_35_393
*1539 FILLER_35_403
*1540 FILLER_35_42
*1541 FILLER_35_54
*1542 FILLER_35_57
*1543 FILLER_35_6
*1544 FILLER_35_69
*1545 FILLER_35_81
*1546 FILLER_35_93
*1547 FILLER_36_109
*1548 FILLER_36_121
*1549 FILLER_36_133
*1550 FILLER_36_139
*1551 FILLER_36_141
*1552 FILLER_36_15
*1553 FILLER_36_153
*1554 FILLER_36_165
*1555 FILLER_36_177
*1556 FILLER_36_189
*1557 FILLER_36_195
*1558 FILLER_36_197
*1559 FILLER_36_209
*1560 FILLER_36_221
*1561 FILLER_36_233
*1562 FILLER_36_245
*1563 FILLER_36_251
*1564 FILLER_36_253
*1565 FILLER_36_265
*1566 FILLER_36_27
*1567 FILLER_36_277
*1568 FILLER_36_289
*1569 FILLER_36_29
*1570 FILLER_36_3
*1571 FILLER_36_301
*1572 FILLER_36_307
*1573 FILLER_36_309
*1574 FILLER_36_321
*1575 FILLER_36_333
*1576 FILLER_36_345
*1577 FILLER_36_357
*1578 FILLER_36_363
*1579 FILLER_36_365
*1580 FILLER_36_377
*1581 FILLER_36_389
*1582 FILLER_36_401
*1583 FILLER_36_41
*1584 FILLER_36_53
*1585 FILLER_36_65
*1586 FILLER_36_77
*1587 FILLER_36_83
*1588 FILLER_36_85
*1589 FILLER_36_97
*1590 FILLER_37_105
*1591 FILLER_37_111
*1592 FILLER_37_113
*1593 FILLER_37_125
*1594 FILLER_37_137
*1595 FILLER_37_14
*1596 FILLER_37_149
*1597 FILLER_37_161
*1598 FILLER_37_167
*1599 FILLER_37_169
*1600 FILLER_37_181
*1601 FILLER_37_193
*1602 FILLER_37_20
*1603 FILLER_37_205
*1604 FILLER_37_217
*1605 FILLER_37_223
*1606 FILLER_37_225
*1607 FILLER_37_237
*1608 FILLER_37_249
*1609 FILLER_37_261
*1610 FILLER_37_273
*1611 FILLER_37_279
*1612 FILLER_37_281
*1613 FILLER_37_293
*1614 FILLER_37_305
*1615 FILLER_37_317
*1616 FILLER_37_32
*1617 FILLER_37_329
*1618 FILLER_37_335
*1619 FILLER_37_337
*1620 FILLER_37_349
*1621 FILLER_37_361
*1622 FILLER_37_373
*1623 FILLER_37_385
*1624 FILLER_37_391
*1625 FILLER_37_393
*1626 FILLER_37_399
*1627 FILLER_37_403
*1628 FILLER_37_44
*1629 FILLER_37_57
*1630 FILLER_37_69
*1631 FILLER_37_7
*1632 FILLER_37_81
*1633 FILLER_37_93
*1634 FILLER_38_109