*SPEF "ieee 1481-1999"
*DESIGN "user_project_wrapper"
*DATE "11:11:11 Fri 11 11, 1111"
*VENDOR "OpenRCX"
*PROGRAM "Parallel Extraction"
*VERSION "1.0"
*DESIGN_FLOW "NAME_SCOPE LOCAL" "PIN_CAP NONE"
*DIVIDER /
*DELIMITER :
*BUS_DELIMITER []
*T_UNIT 1 NS
*C_UNIT 1 PF
*R_UNIT 1 OHM
*L_UNIT 1 HENRY

*NAME_MAP
*1 analog_io[0]
*2 analog_io[10]
*3 analog_io[11]
*4 analog_io[12]
*5 analog_io[13]
*6 analog_io[14]
*7 analog_io[15]
*8 analog_io[16]
*9 analog_io[17]
*10 analog_io[18]
*11 analog_io[19]
*12 analog_io[1]
*13 analog_io[20]
*14 analog_io[21]
*15 analog_io[22]
*16 analog_io[23]
*17 analog_io[24]
*18 analog_io[25]
*19 analog_io[26]
*20 analog_io[27]
*21 analog_io[28]
*22 analog_io[2]
*23 analog_io[3]
*24 analog_io[4]
*25 analog_io[5]
*26 analog_io[6]
*27 analog_io[7]
*28 analog_io[8]
*29 analog_io[9]
*30 io_in[0]
*31 io_in[10]
*32 io_in[11]
*33 io_in[12]
*34 io_in[13]
*35 io_in[14]
*36 io_in[15]
*37 io_in[16]
*38 io_in[17]
*39 io_in[18]
*40 io_in[19]
*41 io_in[1]
*42 io_in[20]
*43 io_in[21]
*44 io_in[22]
*45 io_in[23]
*46 io_in[24]
*47 io_in[25]
*48 io_in[26]
*49 io_in[27]
*50 io_in[28]
*51 io_in[29]
*52 io_in[2]
*53 io_in[30]
*54 io_in[31]
*55 io_in[32]
*56 io_in[33]
*57 io_in[34]
*58 io_in[35]
*59 io_in[36]
*60 io_in[37]
*61 io_in[3]
*62 io_in[4]
*63 io_in[5]
*64 io_in[6]
*65 io_in[7]
*66 io_in[8]
*67 io_in[9]
*68 io_oeb[0]
*69 io_oeb[10]
*70 io_oeb[11]
*71 io_oeb[12]
*72 io_oeb[13]
*73 io_oeb[14]
*74 io_oeb[15]
*75 io_oeb[16]
*76 io_oeb[17]
*77 io_oeb[18]
*78 io_oeb[19]
*79 io_oeb[1]
*80 io_oeb[20]
*81 io_oeb[21]
*82 io_oeb[22]
*83 io_oeb[23]
*84 io_oeb[24]
*85 io_oeb[25]
*86 io_oeb[26]
*87 io_oeb[27]
*88 io_oeb[28]
*89 io_oeb[29]
*90 io_oeb[2]
*91 io_oeb[30]
*92 io_oeb[31]
*93 io_oeb[32]
*94 io_oeb[33]
*95 io_oeb[34]
*96 io_oeb[35]
*97 io_oeb[36]
*98 io_oeb[37]
*99 io_oeb[3]
*100 io_oeb[4]
*101 io_oeb[5]
*102 io_oeb[6]
*103 io_oeb[7]
*104 io_oeb[8]
*105 io_oeb[9]
*106 io_out[0]
*107 io_out[10]
*108 io_out[11]
*109 io_out[12]
*110 io_out[13]
*111 io_out[14]
*112 io_out[15]
*113 io_out[16]
*114 io_out[17]
*115 io_out[18]
*116 io_out[19]
*117 io_out[1]
*118 io_out[20]
*119 io_out[21]
*120 io_out[22]
*121 io_out[23]
*122 io_out[24]
*123 io_out[25]
*124 io_out[26]
*125 io_out[27]
*126 io_out[28]
*127 io_out[29]
*128 io_out[2]
*129 io_out[30]
*130 io_out[31]
*131 io_out[32]
*132 io_out[33]
*133 io_out[34]
*134 io_out[35]
*135 io_out[36]
*136 io_out[37]
*137 io_out[3]
*138 io_out[4]
*139 io_out[5]
*140 io_out[6]
*141 io_out[7]
*142 io_out[8]
*143 io_out[9]
*144 la_data_in[0]
*145 la_data_in[100]
*146 la_data_in[101]
*147 la_data_in[102]
*148 la_data_in[103]
*149 la_data_in[104]
*150 la_data_in[105]
*151 la_data_in[106]
*152 la_data_in[107]
*153 la_data_in[108]
*154 la_data_in[109]
*155 la_data_in[10]
*156 la_data_in[110]
*157 la_data_in[111]
*158 la_data_in[112]
*159 la_data_in[113]
*160 la_data_in[114]
*161 la_data_in[115]
*162 la_data_in[116]
*163 la_data_in[117]
*164 la_data_in[118]
*165 la_data_in[119]
*166 la_data_in[11]
*167 la_data_in[120]
*168 la_data_in[121]
*169 la_data_in[122]
*170 la_data_in[123]
*171 la_data_in[124]
*172 la_data_in[125]
*173 la_data_in[126]
*174 la_data_in[127]
*175 la_data_in[12]
*176 la_data_in[13]
*177 la_data_in[14]
*178 la_data_in[15]
*179 la_data_in[16]
*180 la_data_in[17]
*181 la_data_in[18]
*182 la_data_in[19]
*183 la_data_in[1]
*184 la_data_in[20]
*185 la_data_in[21]
*186 la_data_in[22]
*187 la_data_in[23]
*188 la_data_in[24]
*189 la_data_in[25]
*190 la_data_in[26]
*191 la_data_in[27]
*192 la_data_in[28]
*193 la_data_in[29]
*194 la_data_in[2]
*195 la_data_in[30]
*196 la_data_in[31]
*197 la_data_in[32]
*198 la_data_in[33]
*199 la_data_in[34]
*200 la_data_in[35]
*201 la_data_in[36]
*202 la_data_in[37]
*203 la_data_in[38]
*204 la_data_in[39]
*205 la_data_in[3]
*206 la_data_in[40]
*207 la_data_in[41]
*208 la_data_in[42]
*209 la_data_in[43]
*210 la_data_in[44]
*211 la_data_in[45]
*212 la_data_in[46]
*213 la_data_in[47]
*214 la_data_in[48]
*215 la_data_in[49]
*216 la_data_in[4]
*217 la_data_in[50]
*218 la_data_in[51]
*219 la_data_in[52]
*220 la_data_in[53]
*221 la_data_in[54]
*222 la_data_in[55]
*223 la_data_in[56]
*224 la_data_in[57]
*225 la_data_in[58]
*226 la_data_in[59]
*227 la_data_in[5]
*228 la_data_in[60]
*229 la_data_in[61]
*230 la_data_in[62]
*231 la_data_in[63]
*232 la_data_in[64]
*233 la_data_in[65]
*234 la_data_in[66]
*235 la_data_in[67]
*236 la_data_in[68]
*237 la_data_in[69]
*238 la_data_in[6]
*239 la_data_in[70]
*240 la_data_in[71]
*241 la_data_in[72]
*242 la_data_in[73]
*243 la_data_in[74]
*244 la_data_in[75]
*245 la_data_in[76]
*246 la_data_in[77]
*247 la_data_in[78]
*248 la_data_in[79]
*249 la_data_in[7]
*250 la_data_in[80]
*251 la_data_in[81]
*252 la_data_in[82]
*253 la_data_in[83]
*254 la_data_in[84]
*255 la_data_in[85]
*256 la_data_in[86]
*257 la_data_in[87]
*258 la_data_in[88]
*259 la_data_in[89]
*260 la_data_in[8]
*261 la_data_in[90]
*262 la_data_in[91]
*263 la_data_in[92]
*264 la_data_in[93]
*265 la_data_in[94]
*266 la_data_in[95]
*267 la_data_in[96]
*268 la_data_in[97]
*269 la_data_in[98]
*270 la_data_in[99]
*271 la_data_in[9]
*272 la_data_out[0]
*273 la_data_out[100]
*274 la_data_out[101]
*275 la_data_out[102]
*276 la_data_out[103]
*277 la_data_out[104]
*278 la_data_out[105]
*279 la_data_out[106]
*280 la_data_out[107]
*281 la_data_out[108]
*282 la_data_out[109]
*283 la_data_out[10]
*284 la_data_out[110]
*285 la_data_out[111]
*286 la_data_out[112]
*287 la_data_out[113]
*288 la_data_out[114]
*289 la_data_out[115]
*290 la_data_out[116]
*291 la_data_out[117]
*292 la_data_out[118]
*293 la_data_out[119]
*294 la_data_out[11]
*295 la_data_out[120]
*296 la_data_out[121]
*297 la_data_out[122]
*298 la_data_out[123]
*299 la_data_out[124]
*300 la_data_out[125]
*301 la_data_out[126]
*302 la_data_out[127]
*303 la_data_out[12]
*304 la_data_out[13]
*305 la_data_out[14]
*306 la_data_out[15]
*307 la_data_out[16]
*308 la_data_out[17]
*309 la_data_out[18]
*310 la_data_out[19]
*311 la_data_out[1]
*312 la_data_out[20]
*313 la_data_out[21]
*314 la_data_out[22]
*315 la_data_out[23]
*316 la_data_out[24]
*317 la_data_out[25]
*318 la_data_out[26]
*319 la_data_out[27]
*320 la_data_out[28]
*321 la_data_out[29]
*322 la_data_out[2]
*323 la_data_out[30]
*324 la_data_out[31]
*325 la_data_out[32]
*326 la_data_out[33]
*327 la_data_out[34]
*328 la_data_out[35]
*329 la_data_out[36]
*330 la_data_out[37]
*331 la_data_out[38]
*332 la_data_out[39]
*333 la_data_out[3]
*334 la_data_out[40]
*335 la_data_out[41]
*336 la_data_out[42]
*337 la_data_out[43]
*338 la_data_out[44]
*339 la_data_out[45]
*340 la_data_out[46]
*341 la_data_out[47]
*342 la_data_out[48]
*343 la_data_out[49]
*344 la_data_out[4]
*345 la_data_out[50]
*346 la_data_out[51]
*347 la_data_out[52]
*348 la_data_out[53]
*349 la_data_out[54]
*350 la_data_out[55]
*351 la_data_out[56]
*352 la_data_out[57]
*353 la_data_out[58]
*354 la_data_out[59]
*355 la_data_out[5]
*356 la_data_out[60]
*357 la_data_out[61]
*358 la_data_out[62]
*359 la_data_out[63]
*360 la_data_out[64]
*361 la_data_out[65]
*362 la_data_out[66]
*363 la_data_out[67]
*364 la_data_out[68]
*365 la_data_out[69]
*366 la_data_out[6]
*367 la_data_out[70]
*368 la_data_out[71]
*369 la_data_out[72]
*370 la_data_out[73]
*371 la_data_out[74]
*372 la_data_out[75]
*373 la_data_out[76]
*374 la_data_out[77]
*375 la_data_out[78]
*376 la_data_out[79]
*377 la_data_out[7]
*378 la_data_out[80]
*379 la_data_out[81]
*380 la_data_out[82]
*381 la_data_out[83]
*382 la_data_out[84]
*383 la_data_out[85]
*384 la_data_out[86]
*385 la_data_out[87]
*386 la_data_out[88]
*387 la_data_out[89]
*388 la_data_out[8]
*389 la_data_out[90]
*390 la_data_out[91]
*391 la_data_out[92]
*392 la_data_out[93]
*393 la_data_out[94]
*394 la_data_out[95]
*395 la_data_out[96]
*396 la_data_out[97]
*397 la_data_out[98]
*398 la_data_out[99]
*399 la_data_out[9]
*400 la_oenb[0]
*401 la_oenb[100]
*402 la_oenb[101]
*403 la_oenb[102]
*404 la_oenb[103]
*405 la_oenb[104]
*406 la_oenb[105]
*407 la_oenb[106]
*408 la_oenb[107]
*409 la_oenb[108]
*410 la_oenb[109]
*411 la_oenb[10]
*412 la_oenb[110]
*413 la_oenb[111]
*414 la_oenb[112]
*415 la_oenb[113]
*416 la_oenb[114]
*417 la_oenb[115]
*418 la_oenb[116]
*419 la_oenb[117]
*420 la_oenb[118]
*421 la_oenb[119]
*422 la_oenb[11]
*423 la_oenb[120]
*424 la_oenb[121]
*425 la_oenb[122]
*426 la_oenb[123]
*427 la_oenb[124]
*428 la_oenb[125]
*429 la_oenb[126]
*430 la_oenb[127]
*431 la_oenb[12]
*432 la_oenb[13]
*433 la_oenb[14]
*434 la_oenb[15]
*435 la_oenb[16]
*436 la_oenb[17]
*437 la_oenb[18]
*438 la_oenb[19]
*439 la_oenb[1]
*440 la_oenb[20]
*441 la_oenb[21]
*442 la_oenb[22]
*443 la_oenb[23]
*444 la_oenb[24]
*445 la_oenb[25]
*446 la_oenb[26]
*447 la_oenb[27]
*448 la_oenb[28]
*449 la_oenb[29]
*450 la_oenb[2]
*451 la_oenb[30]
*452 la_oenb[31]
*453 la_oenb[32]
*454 la_oenb[33]
*455 la_oenb[34]
*456 la_oenb[35]
*457 la_oenb[36]
*458 la_oenb[37]
*459 la_oenb[38]
*460 la_oenb[39]
*461 la_oenb[3]
*462 la_oenb[40]
*463 la_oenb[41]
*464 la_oenb[42]
*465 la_oenb[43]
*466 la_oenb[44]
*467 la_oenb[45]
*468 la_oenb[46]
*469 la_oenb[47]
*470 la_oenb[48]
*471 la_oenb[49]
*472 la_oenb[4]
*473 la_oenb[50]
*474 la_oenb[51]
*475 la_oenb[52]
*476 la_oenb[53]
*477 la_oenb[54]
*478 la_oenb[55]
*479 la_oenb[56]
*480 la_oenb[57]
*481 la_oenb[58]
*482 la_oenb[59]
*483 la_oenb[5]
*484 la_oenb[60]
*485 la_oenb[61]
*486 la_oenb[62]
*487 la_oenb[63]
*488 la_oenb[64]
*489 la_oenb[65]
*490 la_oenb[66]
*491 la_oenb[67]
*492 la_oenb[68]
*493 la_oenb[69]
*494 la_oenb[6]
*495 la_oenb[70]
*496 la_oenb[71]
*497 la_oenb[72]
*498 la_oenb[73]
*499 la_oenb[74]
*500 la_oenb[75]
*501 la_oenb[76]
*502 la_oenb[77]
*503 la_oenb[78]
*504 la_oenb[79]
*505 la_oenb[7]
*506 la_oenb[80]
*507 la_oenb[81]
*508 la_oenb[82]
*509 la_oenb[83]
*510 la_oenb[84]
*511 la_oenb[85]
*512 la_oenb[86]
*513 la_oenb[87]
*514 la_oenb[88]
*515 la_oenb[89]
*516 la_oenb[8]
*517 la_oenb[90]
*518 la_oenb[91]
*519 la_oenb[92]
*520 la_oenb[93]
*521 la_oenb[94]
*522 la_oenb[95]
*523 la_oenb[96]
*524 la_oenb[97]
*525 la_oenb[98]
*526 la_oenb[99]
*527 la_oenb[9]
*528 user_clock2
*529 user_irq[0]
*530 user_irq[1]
*531 user_irq[2]
*540 wb_clk_i
*541 wb_rst_i
*542 wbs_ack_o
*543 wbs_adr_i[0]
*544 wbs_adr_i[10]
*545 wbs_adr_i[11]
*546 wbs_adr_i[12]
*547 wbs_adr_i[13]
*548 wbs_adr_i[14]
*549 wbs_adr_i[15]
*550 wbs_adr_i[16]
*551 wbs_adr_i[17]
*552 wbs_adr_i[18]
*553 wbs_adr_i[19]
*554 wbs_adr_i[1]
*555 wbs_adr_i[20]
*556 wbs_adr_i[21]
*557 wbs_adr_i[22]
*558 wbs_adr_i[23]
*559 wbs_adr_i[24]
*560 wbs_adr_i[25]
*561 wbs_adr_i[26]
*562 wbs_adr_i[27]
*563 wbs_adr_i[28]
*564 wbs_adr_i[29]
*565 wbs_adr_i[2]
*566 wbs_adr_i[30]
*567 wbs_adr_i[31]
*568 wbs_adr_i[3]
*569 wbs_adr_i[4]
*570 wbs_adr_i[5]
*571 wbs_adr_i[6]
*572 wbs_adr_i[7]
*573 wbs_adr_i[8]
*574 wbs_adr_i[9]
*575 wbs_cyc_i
*576 wbs_dat_i[0]
*577 wbs_dat_i[10]
*578 wbs_dat_i[11]
*579 wbs_dat_i[12]
*580 wbs_dat_i[13]
*581 wbs_dat_i[14]
*582 wbs_dat_i[15]
*583 wbs_dat_i[16]
*584 wbs_dat_i[17]
*585 wbs_dat_i[18]
*586 wbs_dat_i[19]
*587 wbs_dat_i[1]
*588 wbs_dat_i[20]
*589 wbs_dat_i[21]
*590 wbs_dat_i[22]
*591 wbs_dat_i[23]
*592 wbs_dat_i[24]
*593 wbs_dat_i[25]
*594 wbs_dat_i[26]
*595 wbs_dat_i[27]
*596 wbs_dat_i[28]
*597 wbs_dat_i[29]
*598 wbs_dat_i[2]
*599 wbs_dat_i[30]
*600 wbs_dat_i[31]
*601 wbs_dat_i[3]
*602 wbs_dat_i[4]
*603 wbs_dat_i[5]
*604 wbs_dat_i[6]
*605 wbs_dat_i[7]
*606 wbs_dat_i[8]
*607 wbs_dat_i[9]
*608 wbs_dat_o[0]
*609 wbs_dat_o[10]
*610 wbs_dat_o[11]
*611 wbs_dat_o[12]
*612 wbs_dat_o[13]
*613 wbs_dat_o[14]
*614 wbs_dat_o[15]
*615 wbs_dat_o[16]
*616 wbs_dat_o[17]
*617 wbs_dat_o[18]
*618 wbs_dat_o[19]
*619 wbs_dat_o[1]
*620 wbs_dat_o[20]
*621 wbs_dat_o[21]
*622 wbs_dat_o[22]
*623 wbs_dat_o[23]
*624 wbs_dat_o[24]
*625 wbs_dat_o[25]
*626 wbs_dat_o[26]
*627 wbs_dat_o[27]
*628 wbs_dat_o[28]
*629 wbs_dat_o[29]
*630 wbs_dat_o[2]
*631 wbs_dat_o[30]
*632 wbs_dat_o[31]
*633 wbs_dat_o[3]
*634 wbs_dat_o[4]
*635 wbs_dat_o[5]
*636 wbs_dat_o[6]
*637 wbs_dat_o[7]
*638 wbs_dat_o[8]
*639 wbs_dat_o[9]
*640 wbs_sel_i[0]
*641 wbs_sel_i[1]
*642 wbs_sel_i[2]
*643 wbs_sel_i[3]
*644 wbs_stb_i
*645 wbs_we_i
*646 cw_dir_o
*647 top_cw\.c_wb_4_burst
*648 top_cw\.c_wb_8_burst
*649 top_cw\.c_wb_ack_cmp
*650 top_cw\.c_wb_adr\[0\]
*651 top_cw\.c_wb_adr\[10\]
*652 top_cw\.c_wb_adr\[11\]
*653 top_cw\.c_wb_adr\[12\]
*654 top_cw\.c_wb_adr\[13\]
*655 top_cw\.c_wb_adr\[14\]
*656 top_cw\.c_wb_adr\[15\]
*657 top_cw\.c_wb_adr\[16\]
*658 top_cw\.c_wb_adr\[17\]
*659 top_cw\.c_wb_adr\[18\]
*660 top_cw\.c_wb_adr\[19\]
*661 top_cw\.c_wb_adr\[1\]
*662 top_cw\.c_wb_adr\[20\]
*663 top_cw\.c_wb_adr\[21\]
*664 top_cw\.c_wb_adr\[22\]
*665 top_cw\.c_wb_adr\[23\]
*666 top_cw\.c_wb_adr\[2\]
*667 top_cw\.c_wb_adr\[3\]
*668 top_cw\.c_wb_adr\[4\]
*669 top_cw\.c_wb_adr\[5\]
*670 top_cw\.c_wb_adr\[6\]
*671 top_cw\.c_wb_adr\[7\]
*672 top_cw\.c_wb_adr\[8\]
*673 top_cw\.c_wb_adr\[9\]
*674 top_cw\.c_wb_cyc
*675 top_cw\.c_wb_err_cmp
*676 top_cw\.c_wb_i_dat_cmp\[0\]
*677 top_cw\.c_wb_i_dat_cmp\[10\]
*678 top_cw\.c_wb_i_dat_cmp\[11\]
*679 top_cw\.c_wb_i_dat_cmp\[12\]
*680 top_cw\.c_wb_i_dat_cmp\[13\]
*681 top_cw\.c_wb_i_dat_cmp\[14\]
*682 top_cw\.c_wb_i_dat_cmp\[15\]
*683 top_cw\.c_wb_i_dat_cmp\[1\]
*684 top_cw\.c_wb_i_dat_cmp\[2\]
*685 top_cw\.c_wb_i_dat_cmp\[3\]
*686 top_cw\.c_wb_i_dat_cmp\[4\]
*687 top_cw\.c_wb_i_dat_cmp\[5\]
*688 top_cw\.c_wb_i_dat_cmp\[6\]
*689 top_cw\.c_wb_i_dat_cmp\[7\]
*690 top_cw\.c_wb_i_dat_cmp\[8\]
*691 top_cw\.c_wb_i_dat_cmp\[9\]
*692 top_cw\.c_wb_o_dat\[0\]
*693 top_cw\.c_wb_o_dat\[10\]
*694 top_cw\.c_wb_o_dat\[11\]
*695 top_cw\.c_wb_o_dat\[12\]
*696 top_cw\.c_wb_o_dat\[13\]
*697 top_cw\.c_wb_o_dat\[14\]
*698 top_cw\.c_wb_o_dat\[15\]
*699 top_cw\.c_wb_o_dat\[1\]
*700 top_cw\.c_wb_o_dat\[2\]
*701 top_cw\.c_wb_o_dat\[3\]
*702 top_cw\.c_wb_o_dat\[4\]
*703 top_cw\.c_wb_o_dat\[5\]
*704 top_cw\.c_wb_o_dat\[6\]
*705 top_cw\.c_wb_o_dat\[7\]
*706 top_cw\.c_wb_o_dat\[8\]
*707 top_cw\.c_wb_o_dat\[9\]
*708 top_cw\.c_wb_sel\[0\]
*709 top_cw\.c_wb_sel\[1\]
*710 top_cw\.c_wb_stb
*711 top_cw\.c_wb_we
*712 top_cw\.cc_wb_4_burst
*713 top_cw\.cc_wb_8_burst
*714 top_cw\.cc_wb_adr\[0\]
*715 top_cw\.cc_wb_adr\[10\]
*716 top_cw\.cc_wb_adr\[11\]
*717 top_cw\.cc_wb_adr\[12\]
*718 top_cw\.cc_wb_adr\[13\]
*719 top_cw\.cc_wb_adr\[14\]
*720 top_cw\.cc_wb_adr\[15\]
*721 top_cw\.cc_wb_adr\[16\]
*722 top_cw\.cc_wb_adr\[17\]
*723 top_cw\.cc_wb_adr\[18\]
*724 top_cw\.cc_wb_adr\[19\]
*725 top_cw\.cc_wb_adr\[1\]
*726 top_cw\.cc_wb_adr\[20\]
*727 top_cw\.cc_wb_adr\[21\]
*728 top_cw\.cc_wb_adr\[22\]
*729 top_cw\.cc_wb_adr\[23\]
*730 top_cw\.cc_wb_adr\[2\]
*731 top_cw\.cc_wb_adr\[3\]
*732 top_cw\.cc_wb_adr\[4\]
*733 top_cw\.cc_wb_adr\[5\]
*734 top_cw\.cc_wb_adr\[6\]
*735 top_cw\.cc_wb_adr\[7\]
*736 top_cw\.cc_wb_adr\[8\]
*737 top_cw\.cc_wb_adr\[9\]
*738 top_cw\.cc_wb_cyc
*739 top_cw\.cc_wb_o_dat\[0\]
*740 top_cw\.cc_wb_o_dat\[10\]
*741 top_cw\.cc_wb_o_dat\[11\]
*742 top_cw\.cc_wb_o_dat\[12\]
*743 top_cw\.cc_wb_o_dat\[13\]
*744 top_cw\.cc_wb_o_dat\[14\]
*745 top_cw\.cc_wb_o_dat\[15\]
*746 top_cw\.cc_wb_o_dat\[1\]
*747 top_cw\.cc_wb_o_dat\[2\]
*748 top_cw\.cc_wb_o_dat\[3\]
*749 top_cw\.cc_wb_o_dat\[4\]
*750 top_cw\.cc_wb_o_dat\[5\]
*751 top_cw\.cc_wb_o_dat\[6\]
*752 top_cw\.cc_wb_o_dat\[7\]
*753 top_cw\.cc_wb_o_dat\[8\]
*754 top_cw\.cc_wb_o_dat\[9\]
*755 top_cw\.cc_wb_sel\[0\]
*756 top_cw\.cc_wb_sel\[1\]
*757 top_cw\.cc_wb_stb
*758 top_cw\.cc_wb_we
*759 top_cw\.cmp_clk
*760 top_cw\.cw_dir
*761 top_cw\.cw_req
*762 top_cw\.cw_rst
*763 top_cw\.cw_rst_z
*764 top_cw\.dbg_r0\[0\]
*765 top_cw\.dbg_r0\[10\]
*766 top_cw\.dbg_r0\[11\]
*767 top_cw\.dbg_r0\[12\]
*768 top_cw\.dbg_r0\[13\]
*769 top_cw\.dbg_r0\[14\]
*770 top_cw\.dbg_r0\[15\]
*771 top_cw\.dbg_r0\[1\]
*772 top_cw\.dbg_r0\[2\]
*773 top_cw\.dbg_r0\[3\]
*774 top_cw\.dbg_r0\[4\]
*775 top_cw\.dbg_r0\[5\]
*776 top_cw\.dbg_r0\[6\]
*777 top_cw\.dbg_r0\[7\]
*778 top_cw\.dbg_r0\[8\]
*779 top_cw\.dbg_r0\[9\]
*780 top_cw\.i_rst
*781 top_cw\.ignore_dbg_pc\[0\]
*782 top_cw\.ignore_dbg_pc\[10\]
*783 top_cw\.ignore_dbg_pc\[11\]
*784 top_cw\.ignore_dbg_pc\[12\]
*785 top_cw\.ignore_dbg_pc\[13\]
*786 top_cw\.ignore_dbg_pc\[14\]
*787 top_cw\.ignore_dbg_pc\[15\]
*788 top_cw\.ignore_dbg_pc\[1\]
*789 top_cw\.ignore_dbg_pc\[2\]
*790 top_cw\.ignore_dbg_pc\[3\]
*791 top_cw\.ignore_dbg_pc\[4\]
*792 top_cw\.ignore_dbg_pc\[5\]
*793 top_cw\.ignore_dbg_pc\[6\]
*794 top_cw\.ignore_dbg_pc\[7\]
*795 top_cw\.ignore_dbg_pc\[8\]
*796 top_cw\.ignore_dbg_pc\[9\]
*797 top_cw\.irq_s
*798 top_cw\.m_cw_ack
*799 top_cw\.m_cw_err
*800 top_cw\.m_cw_io_i\[0\]
*801 top_cw\.m_cw_io_i\[10\]
*802 top_cw\.m_cw_io_i\[11\]
*803 top_cw\.m_cw_io_i\[12\]
*804 top_cw\.m_cw_io_i\[13\]
*805 top_cw\.m_cw_io_i\[14\]
*806 top_cw\.m_cw_io_i\[15\]
*807 top_cw\.m_cw_io_i\[1\]
*808 top_cw\.m_cw_io_i\[2\]
*809 top_cw\.m_cw_io_i\[3\]
*810 top_cw\.m_cw_io_i\[4\]
*811 top_cw\.m_cw_io_i\[5\]
*812 top_cw\.m_cw_io_i\[6\]
*813 top_cw\.m_cw_io_i\[7\]
*814 top_cw\.m_cw_io_i\[8\]
*815 top_cw\.m_cw_io_i\[9\]
*816 top_cw\.s_rst
*817 top_cw\.u_wb_4_burst
*818 top_cw\.u_wb_8_burst
*819 top_cw\.u_wb_ack
*820 top_cw\.u_wb_ack_cc
*821 top_cw\.u_wb_ack_clk
*822 top_cw\.u_wb_ack_mxed
*823 top_cw\.u_wb_cyc
*824 top_cw\.u_wb_err
*825 top_cw\.u_wb_err_cc
*826 top_cw\.u_wb_i_dat\[0\]
*827 top_cw\.u_wb_i_dat\[10\]
*828 top_cw\.u_wb_i_dat\[11\]
*829 top_cw\.u_wb_i_dat\[12\]
*830 top_cw\.u_wb_i_dat\[13\]
*831 top_cw\.u_wb_i_dat\[14\]
*832 top_cw\.u_wb_i_dat\[15\]
*833 top_cw\.u_wb_i_dat\[1\]
*834 top_cw\.u_wb_i_dat\[2\]
*835 top_cw\.u_wb_i_dat\[3\]
*836 top_cw\.u_wb_i_dat\[4\]
*837 top_cw\.u_wb_i_dat\[5\]
*838 top_cw\.u_wb_i_dat\[6\]
*839 top_cw\.u_wb_i_dat\[7\]
*840 top_cw\.u_wb_i_dat\[8\]
*841 top_cw\.u_wb_i_dat\[9\]
*842 top_cw\.u_wb_i_dat_cc\[0\]
*843 top_cw\.u_wb_i_dat_cc\[10\]
*844 top_cw\.u_wb_i_dat_cc\[11\]
*845 top_cw\.u_wb_i_dat_cc\[12\]
*846 top_cw\.u_wb_i_dat_cc\[13\]
*847 top_cw\.u_wb_i_dat_cc\[14\]
*848 top_cw\.u_wb_i_dat_cc\[15\]
*849 top_cw\.u_wb_i_dat_cc\[1\]
*850 top_cw\.u_wb_i_dat_cc\[2\]
*851 top_cw\.u_wb_i_dat_cc\[3\]
*852 top_cw\.u_wb_i_dat_cc\[4\]
*853 top_cw\.u_wb_i_dat_cc\[5\]
*854 top_cw\.u_wb_i_dat_cc\[6\]
*855 top_cw\.u_wb_i_dat_cc\[7\]
*856 top_cw\.u_wb_i_dat_cc\[8\]
*857 top_cw\.u_wb_i_dat_cc\[9\]
*858 top_cw\.u_wb_o_dat\[0\]
*859 top_cw\.u_wb_o_dat\[10\]
*860 top_cw\.u_wb_o_dat\[11\]
*861 top_cw\.u_wb_o_dat\[12\]
*862 top_cw\.u_wb_o_dat\[13\]
*863 top_cw\.u_wb_o_dat\[14\]
*864 top_cw\.u_wb_o_dat\[15\]
*865 top_cw\.u_wb_o_dat\[1\]
*866 top_cw\.u_wb_o_dat\[2\]
*867 top_cw\.u_wb_o_dat\[3\]
*868 top_cw\.u_wb_o_dat\[4\]
*869 top_cw\.u_wb_o_dat\[5\]
*870 top_cw\.u_wb_o_dat\[6\]
*871 top_cw\.u_wb_o_dat\[7\]
*872 top_cw\.u_wb_o_dat\[8\]
*873 top_cw\.u_wb_o_dat\[9\]
*874 top_cw\.u_wb_sel\[0\]
*875 top_cw\.u_wb_sel\[1\]
*876 top_cw\.u_wb_stb
*877 top_cw\.u_wb_we
*878 top_cw\.upc\.arb_sel
*879 top_cw\.upc\.cc_data_page
*880 top_cw\.upc\.cc_instr_page
*881 top_cw\.upc\.data_cacheable
*882 top_cw\.upc\.data_i_mem_data\[0\]
*883 top_cw\.upc\.data_i_mem_data\[10\]
*884 top_cw\.upc\.data_i_mem_data\[11\]
*885 top_cw\.upc\.data_i_mem_data\[12\]
*886 top_cw\.upc\.data_i_mem_data\[13\]
*887 top_cw\.upc\.data_i_mem_data\[14\]
*888 top_cw\.upc\.data_i_mem_data\[15\]
*889 top_cw\.upc\.data_i_mem_data\[1\]
*890 top_cw\.upc\.data_i_mem_data\[2\]
*891 top_cw\.upc\.data_i_mem_data\[3\]
*892 top_cw\.upc\.data_i_mem_data\[4\]
*893 top_cw\.upc\.data_i_mem_data\[5\]
*894 top_cw\.upc\.data_i_mem_data\[6\]
*895 top_cw\.upc\.data_i_mem_data\[7\]
*896 top_cw\.upc\.data_i_mem_data\[8\]
*897 top_cw\.upc\.data_i_mem_data\[9\]
*898 top_cw\.upc\.data_mem_ack
*899 top_cw\.upc\.data_mem_addr\[0\]
*900 top_cw\.upc\.data_mem_addr\[10\]
*901 top_cw\.upc\.data_mem_addr\[11\]
*902 top_cw\.upc\.data_mem_addr\[12\]
*903 top_cw\.upc\.data_mem_addr\[13\]
*904 top_cw\.upc\.data_mem_addr\[14\]
*905 top_cw\.upc\.data_mem_addr\[15\]
*906 top_cw\.upc\.data_mem_addr\[1\]
*907 top_cw\.upc\.data_mem_addr\[2\]
*908 top_cw\.upc\.data_mem_addr\[3\]
*909 top_cw\.upc\.data_mem_addr\[4\]
*910 top_cw\.upc\.data_mem_addr\[5\]
*911 top_cw\.upc\.data_mem_addr\[6\]
*912 top_cw\.upc\.data_mem_addr\[7\]
*913 top_cw\.upc\.data_mem_addr\[8\]
*914 top_cw\.upc\.data_mem_addr\[9\]
*915 top_cw\.upc\.data_mem_addr_paged\[0\]
*916 top_cw\.upc\.data_mem_addr_paged\[10\]
*917 top_cw\.upc\.data_mem_addr_paged\[11\]
*918 top_cw\.upc\.data_mem_addr_paged\[12\]
*919 top_cw\.upc\.data_mem_addr_paged\[13\]
*920 top_cw\.upc\.data_mem_addr_paged\[14\]
*921 top_cw\.upc\.data_mem_addr_paged\[15\]
*922 top_cw\.upc\.data_mem_addr_paged\[16\]
*923 top_cw\.upc\.data_mem_addr_paged\[17\]
*924 top_cw\.upc\.data_mem_addr_paged\[18\]
*925 top_cw\.upc\.data_mem_addr_paged\[19\]
*926 top_cw\.upc\.data_mem_addr_paged\[1\]
*927 top_cw\.upc\.data_mem_addr_paged\[20\]
*928 top_cw\.upc\.data_mem_addr_paged\[21\]
*929 top_cw\.upc\.data_mem_addr_paged\[22\]
*930 top_cw\.upc\.data_mem_addr_paged\[23\]
*931 top_cw\.upc\.data_mem_addr_paged\[2\]
*932 top_cw\.upc\.data_mem_addr_paged\[3\]
*933 top_cw\.upc\.data_mem_addr_paged\[4\]
*934 top_cw\.upc\.data_mem_addr_paged\[5\]
*935 top_cw\.upc\.data_mem_addr_paged\[6\]
*936 top_cw\.upc\.data_mem_addr_paged\[7\]
*937 top_cw\.upc\.data_mem_addr_paged\[8\]
*938 top_cw\.upc\.data_mem_addr_paged\[9\]
*939 top_cw\.upc\.data_mem_req
*940 top_cw\.upc\.data_mem_sel\[0\]
*941 top_cw\.upc\.data_mem_sel\[1\]
*942 top_cw\.upc\.data_mem_we
*943 top_cw\.upc\.data_o_mem_data\[0\]
*944 top_cw\.upc\.data_o_mem_data\[10\]
*945 top_cw\.upc\.data_o_mem_data\[11\]
*946 top_cw\.upc\.data_o_mem_data\[12\]
*947 top_cw\.upc\.data_o_mem_data\[13\]
*948 top_cw\.upc\.data_o_mem_data\[14\]
*949 top_cw\.upc\.data_o_mem_data\[15\]
*950 top_cw\.upc\.data_o_mem_data\[1\]
*951 top_cw\.upc\.data_o_mem_data\[2\]
*952 top_cw\.upc\.data_o_mem_data\[3\]
*953 top_cw\.upc\.data_o_mem_data\[4\]
*954 top_cw\.upc\.data_o_mem_data\[5\]
*955 top_cw\.upc\.data_o_mem_data\[6\]
*956 top_cw\.upc\.data_o_mem_data\[7\]
*957 top_cw\.upc\.data_o_mem_data\[8\]
*958 top_cw\.upc\.data_o_mem_data\[9\]
*959 top_cw\.upc\.data_wb_4_burst
*960 top_cw\.upc\.data_wb_ack
*961 top_cw\.upc\.data_wb_adr\[0\]
*962 top_cw\.upc\.data_wb_adr\[10\]
*963 top_cw\.upc\.data_wb_adr\[11\]
*964 top_cw\.upc\.data_wb_adr\[12\]
*965 top_cw\.upc\.data_wb_adr\[13\]
*966 top_cw\.upc\.data_wb_adr\[14\]
*967 top_cw\.upc\.data_wb_adr\[15\]
*968 top_cw\.upc\.data_wb_adr\[16\]
*969 top_cw\.upc\.data_wb_adr\[17\]
*970 top_cw\.upc\.data_wb_adr\[18\]
*971 top_cw\.upc\.data_wb_adr\[19\]
*972 top_cw\.upc\.data_wb_adr\[1\]
*973 top_cw\.upc\.data_wb_adr\[20\]
*974 top_cw\.upc\.data_wb_adr\[21\]
*975 top_cw\.upc\.data_wb_adr\[22\]
*976 top_cw\.upc\.data_wb_adr\[23\]
*977 top_cw\.upc\.data_wb_adr\[2\]
*978 top_cw\.upc\.data_wb_adr\[3\]
*979 top_cw\.upc\.data_wb_adr\[4\]
*980 top_cw\.upc\.data_wb_adr\[5\]
*981 top_cw\.upc\.data_wb_adr\[6\]
*982 top_cw\.upc\.data_wb_adr\[7\]
*983 top_cw\.upc\.data_wb_adr\[8\]
*984 top_cw\.upc\.data_wb_adr\[9\]
*985 top_cw\.upc\.data_wb_cyc
*986 top_cw\.upc\.data_wb_err
*987 top_cw\.upc\.data_wb_o_dat\[0\]
*988 top_cw\.upc\.data_wb_o_dat\[10\]
*989 top_cw\.upc\.data_wb_o_dat\[11\]
*990 top_cw\.upc\.data_wb_o_dat\[12\]
*991 top_cw\.upc\.data_wb_o_dat\[13\]
*992 top_cw\.upc\.data_wb_o_dat\[14\]
*993 top_cw\.upc\.data_wb_o_dat\[15\]
*994 top_cw\.upc\.data_wb_o_dat\[1\]
*995 top_cw\.upc\.data_wb_o_dat\[2\]
*996 top_cw\.upc\.data_wb_o_dat\[3\]
*997 top_cw\.upc\.data_wb_o_dat\[4\]
*998 top_cw\.upc\.data_wb_o_dat\[5\]
*999 top_cw\.upc\.data_wb_o_dat\[6\]
*1000 top_cw\.upc\.data_wb_o_dat\[7\]
*1001 top_cw\.upc\.data_wb_o_dat\[8\]
*1002 top_cw\.upc\.data_wb_o_dat\[9\]
*1003 top_cw\.upc\.data_wb_sel\[0\]
*1004 top_cw\.upc\.data_wb_sel\[1\]
*1005 top_cw\.upc\.data_wb_stb
*1006 top_cw\.upc\.data_wb_we
*1007 top_cw\.upc\.dbg_out_core\[21\]
*1008 top_cw\.upc\.dcache_exception
*1009 top_cw\.upc\.fetch_ppl_submit
*1010 top_cw\.upc\.fetch_req_ack
*1011 top_cw\.upc\.fetch_req_active
*1012 top_cw\.upc\.fetch_req_addr\[0\]
*1013 top_cw\.upc\.fetch_req_addr\[10\]
*1014 top_cw\.upc\.fetch_req_addr\[11\]
*1015 top_cw\.upc\.fetch_req_addr\[12\]
*1016 top_cw\.upc\.fetch_req_addr\[13\]
*1017 top_cw\.upc\.fetch_req_addr\[14\]
*1018 top_cw\.upc\.fetch_req_addr\[15\]
*1019 top_cw\.upc\.fetch_req_addr\[1\]
*1020 top_cw\.upc\.fetch_req_addr\[2\]
*1021 top_cw\.upc\.fetch_req_addr\[3\]
*1022 top_cw\.upc\.fetch_req_addr\[4\]
*1023 top_cw\.upc\.fetch_req_addr\[5\]
*1024 top_cw\.upc\.fetch_req_addr\[6\]
*1025 top_cw\.upc\.fetch_req_addr\[7\]
*1026 top_cw\.upc\.fetch_req_addr\[8\]
*1027 top_cw\.upc\.fetch_req_addr\[9\]
*1028 top_cw\.upc\.fetch_req_data\[0\]
*1029 top_cw\.upc\.fetch_req_data\[10\]
*1030 top_cw\.upc\.fetch_req_data\[11\]
*1031 top_cw\.upc\.fetch_req_data\[12\]
*1032 top_cw\.upc\.fetch_req_data\[13\]
*1033 top_cw\.upc\.fetch_req_data\[14\]
*1034 top_cw\.upc\.fetch_req_data\[15\]
*1035 top_cw\.upc\.fetch_req_data\[16\]
*1036 top_cw\.upc\.fetch_req_data\[17\]
*1037 top_cw\.upc\.fetch_req_data\[18\]
*1038 top_cw\.upc\.fetch_req_data\[19\]
*1039 top_cw\.upc\.fetch_req_data\[1\]
*1040 top_cw\.upc\.fetch_req_data\[20\]
*1041 top_cw\.upc\.fetch_req_data\[21\]
*1042 top_cw\.upc\.fetch_req_data\[22\]
*1043 top_cw\.upc\.fetch_req_data\[23\]
*1044 top_cw\.upc\.fetch_req_data\[24\]
*1045 top_cw\.upc\.fetch_req_data\[25\]
*1046 top_cw\.upc\.fetch_req_data\[26\]
*1047 top_cw\.upc\.fetch_req_data\[27\]
*1048 top_cw\.upc\.fetch_req_data\[28\]
*1049 top_cw\.upc\.fetch_req_data\[29\]
*1050 top_cw\.upc\.fetch_req_data\[2\]
*1051 top_cw\.upc\.fetch_req_data\[30\]
*1052 top_cw\.upc\.fetch_req_data\[31\]
*1053 top_cw\.upc\.fetch_req_data\[3\]
*1054 top_cw\.upc\.fetch_req_data\[4\]
*1055 top_cw\.upc\.fetch_req_data\[5\]
*1056 top_cw\.upc\.fetch_req_data\[6\]
*1057 top_cw\.upc\.fetch_req_data\[7\]
*1058 top_cw\.upc\.fetch_req_data\[8\]
*1059 top_cw\.upc\.fetch_req_data\[9\]
*1060 top_cw\.upc\.fetch_wb_ack
*1061 top_cw\.upc\.fetch_wb_adr\[0\]
*1062 top_cw\.upc\.fetch_wb_adr\[10\]
*1063 top_cw\.upc\.fetch_wb_adr\[11\]
*1064 top_cw\.upc\.fetch_wb_adr\[12\]
*1065 top_cw\.upc\.fetch_wb_adr\[13\]
*1066 top_cw\.upc\.fetch_wb_adr\[14\]
*1067 top_cw\.upc\.fetch_wb_adr\[15\]
*1068 top_cw\.upc\.fetch_wb_adr\[1\]
*1069 top_cw\.upc\.fetch_wb_adr\[2\]
*1070 top_cw\.upc\.fetch_wb_adr\[3\]
*1071 top_cw\.upc\.fetch_wb_adr\[4\]
*1072 top_cw\.upc\.fetch_wb_adr\[5\]
*1073 top_cw\.upc\.fetch_wb_adr\[6\]
*1074 top_cw\.upc\.fetch_wb_adr\[7\]
*1075 top_cw\.upc\.fetch_wb_adr\[8\]
*1076 top_cw\.upc\.fetch_wb_adr\[9\]
*1077 top_cw\.upc\.fetch_wb_adr_paged\[0\]
*1078 top_cw\.upc\.fetch_wb_adr_paged\[10\]
*1079 top_cw\.upc\.fetch_wb_adr_paged\[11\]
*1080 top_cw\.upc\.fetch_wb_adr_paged\[12\]
*1081 top_cw\.upc\.fetch_wb_adr_paged\[13\]
*1082 top_cw\.upc\.fetch_wb_adr_paged\[14\]
*1083 top_cw\.upc\.fetch_wb_adr_paged\[15\]
*1084 top_cw\.upc\.fetch_wb_adr_paged\[16\]
*1085 top_cw\.upc\.fetch_wb_adr_paged\[17\]
*1086 top_cw\.upc\.fetch_wb_adr_paged\[18\]
*1087 top_cw\.upc\.fetch_wb_adr_paged\[19\]
*1088 top_cw\.upc\.fetch_wb_adr_paged\[1\]
*1089 top_cw\.upc\.fetch_wb_adr_paged\[20\]
*1090 top_cw\.upc\.fetch_wb_adr_paged\[21\]
*1091 top_cw\.upc\.fetch_wb_adr_paged\[22\]
*1092 top_cw\.upc\.fetch_wb_adr_paged\[23\]
*1093 top_cw\.upc\.fetch_wb_adr_paged\[2\]
*1094 top_cw\.upc\.fetch_wb_adr_paged\[3\]
*1095 top_cw\.upc\.fetch_wb_adr_paged\[4\]
*1096 top_cw\.upc\.fetch_wb_adr_paged\[5\]
*1097 top_cw\.upc\.fetch_wb_adr_paged\[6\]
*1098 top_cw\.upc\.fetch_wb_adr_paged\[7\]
*1099 top_cw\.upc\.fetch_wb_adr_paged\[8\]
*1100 top_cw\.upc\.fetch_wb_adr_paged\[9\]
*1101 top_cw\.upc\.fetch_wb_cyc
*1102 top_cw\.upc\.fetch_wb_err
*1103 top_cw\.upc\.fetch_wb_o_dat\[0\]
*1104 top_cw\.upc\.fetch_wb_o_dat\[10\]
*1105 top_cw\.upc\.fetch_wb_o_dat\[11\]
*1106 top_cw\.upc\.fetch_wb_o_dat\[12\]
*1107 top_cw\.upc\.fetch_wb_o_dat\[13\]
*1108 top_cw\.upc\.fetch_wb_o_dat\[14\]
*1109 top_cw\.upc\.fetch_wb_o_dat\[15\]
*1110 top_cw\.upc\.fetch_wb_o_dat\[1\]
*1111 top_cw\.upc\.fetch_wb_o_dat\[2\]
*1112 top_cw\.upc\.fetch_wb_o_dat\[3\]
*1113 top_cw\.upc\.fetch_wb_o_dat\[4\]
*1114 top_cw\.upc\.fetch_wb_o_dat\[5\]
*1115 top_cw\.upc\.fetch_wb_o_dat\[6\]
*1116 top_cw\.upc\.fetch_wb_o_dat\[7\]
*1117 top_cw\.upc\.fetch_wb_o_dat\[8\]
*1118 top_cw\.upc\.fetch_wb_o_dat\[9\]
*1119 top_cw\.upc\.fetch_wb_sel\[0\]
*1120 top_cw\.upc\.fetch_wb_sel\[1\]
*1121 top_cw\.upc\.fetch_wb_stb
*1122 top_cw\.upc\.fetch_wb_we
*1123 top_cw\.upc\.icache_flush
*1124 top_cw\.upc\.sr_bus_addr\[0\]
*1125 top_cw\.upc\.sr_bus_addr\[10\]
*1126 top_cw\.upc\.sr_bus_addr\[11\]
*1127 top_cw\.upc\.sr_bus_addr\[12\]
*1128 top_cw\.upc\.sr_bus_addr\[13\]
*1129 top_cw\.upc\.sr_bus_addr\[14\]
*1130 top_cw\.upc\.sr_bus_addr\[15\]
*1131 top_cw\.upc\.sr_bus_addr\[1\]
*1132 top_cw\.upc\.sr_bus_addr\[2\]
*1133 top_cw\.upc\.sr_bus_addr\[3\]
*1134 top_cw\.upc\.sr_bus_addr\[4\]
*1135 top_cw\.upc\.sr_bus_addr\[5\]
*1136 top_cw\.upc\.sr_bus_addr\[6\]
*1137 top_cw\.upc\.sr_bus_addr\[7\]
*1138 top_cw\.upc\.sr_bus_addr\[8\]
*1139 top_cw\.upc\.sr_bus_addr\[9\]
*1140 top_cw\.upc\.sr_bus_data_o\[0\]
*1141 top_cw\.upc\.sr_bus_data_o\[10\]
*1142 top_cw\.upc\.sr_bus_data_o\[11\]
*1143 top_cw\.upc\.sr_bus_data_o\[12\]
*1144 top_cw\.upc\.sr_bus_data_o\[13\]
*1145 top_cw\.upc\.sr_bus_data_o\[14\]
*1146 top_cw\.upc\.sr_bus_data_o\[15\]
*1147 top_cw\.upc\.sr_bus_data_o\[1\]
*1148 top_cw\.upc\.sr_bus_data_o\[2\]
*1149 top_cw\.upc\.sr_bus_data_o\[3\]
*1150 top_cw\.upc\.sr_bus_data_o\[4\]
*1151 top_cw\.upc\.sr_bus_data_o\[5\]
*1152 top_cw\.upc\.sr_bus_data_o\[6\]
*1153 top_cw\.upc\.sr_bus_data_o\[7\]
*1154 top_cw\.upc\.sr_bus_data_o\[8\]
*1155 top_cw\.upc\.sr_bus_data_o\[9\]
*1156 top_cw\.upc\.sr_bus_we
*1157 top_cw\.upc\.wb0_8_burst
*1158 top_cw\.upc\.wb1_4_burst
*1159 top_cw\.upc\.wb1_8_burst
*1160 top_cw\.clk_div
*1161 top_cw\.top_cw_logic
*1162 top_cw\.upc\.core
*1163 top_cw\.upc\.dcache
*1164 top_cw\.upc\.icache
*1165 top_cw\.upc\.upper_core_logic
*1166 top_cw\.upc\.wb_arbiter
*1167 top_cw\.wb_compressor
*1168 top_cw\.wb_cross_clk
*1169 uprj_w_const

*PORTS
analog_io[0] I
analog_io[10] I
analog_io[11] I
analog_io[12] I
analog_io[13] I
analog_io[14] I
analog_io[15] I
analog_io[16] I
analog_io[17] I
analog_io[18] I
analog_io[19] I
analog_io[1] I
analog_io[20] I
analog_io[21] I
analog_io[22] I
analog_io[23] I
analog_io[24] I