*SPEF "ieee 1481-1999"
*DESIGN "wb_cross_clk"
*DATE "11:11:11 Fri 11 11, 1111"
*VENDOR "OpenRCX"
*PROGRAM "Parallel Extraction"
*VERSION "1.0"
*DESIGN_FLOW "NAME_SCOPE LOCAL" "PIN_CAP NONE"
*DIVIDER /
*DELIMITER :
*BUS_DELIMITER []
*T_UNIT 1 NS
*C_UNIT 1 PF
*R_UNIT 1 OHM
*L_UNIT 1 HENRY

*NAME_MAP
*1 clk_m
*2 clk_s
*3 m_rst
*4 m_wb_4_burst
*5 m_wb_8_burst
*6 m_wb_ack
*7 m_wb_adr[0]
*8 m_wb_adr[10]
*9 m_wb_adr[11]
*10 m_wb_adr[12]
*11 m_wb_adr[13]
*12 m_wb_adr[14]
*13 m_wb_adr[15]
*14 m_wb_adr[16]
*15 m_wb_adr[17]
*16 m_wb_adr[18]
*17 m_wb_adr[19]
*18 m_wb_adr[1]
*19 m_wb_adr[20]
*20 m_wb_adr[21]
*21 m_wb_adr[22]
*22 m_wb_adr[23]
*23 m_wb_adr[2]
*24 m_wb_adr[3]
*25 m_wb_adr[4]
*26 m_wb_adr[5]
*27 m_wb_adr[6]
*28 m_wb_adr[7]
*29 m_wb_adr[8]
*30 m_wb_adr[9]
*31 m_wb_cyc
*32 net132
*33 m_wb_i_dat[0]
*34 m_wb_i_dat[10]
*35 m_wb_i_dat[11]
*36 m_wb_i_dat[12]
*37 m_wb_i_dat[13]
*38 m_wb_i_dat[14]
*39 m_wb_i_dat[15]
*40 m_wb_i_dat[1]
*41 m_wb_i_dat[2]
*42 m_wb_i_dat[3]
*43 m_wb_i_dat[4]
*44 m_wb_i_dat[5]
*45 m_wb_i_dat[6]
*46 m_wb_i_dat[7]
*47 m_wb_i_dat[8]
*48 m_wb_i_dat[9]
*49 m_wb_o_dat[0]
*50 m_wb_o_dat[10]
*51 m_wb_o_dat[11]
*52 m_wb_o_dat[12]
*53 m_wb_o_dat[13]
*54 m_wb_o_dat[14]
*55 m_wb_o_dat[15]
*56 m_wb_o_dat[1]
*57 m_wb_o_dat[2]
*58 m_wb_o_dat[3]
*59 m_wb_o_dat[4]
*60 m_wb_o_dat[5]
*61 m_wb_o_dat[6]
*62 m_wb_o_dat[7]
*63 m_wb_o_dat[8]
*64 m_wb_o_dat[9]
*65 m_wb_sel[0]
*66 m_wb_sel[1]
*67 m_wb_stb
*68 m_wb_we
*69 s_rst
*70 s_wb_4_burst
*71 s_wb_8_burst
*72 s_wb_ack
*73 s_wb_adr[0]
*74 s_wb_adr[10]
*75 s_wb_adr[11]
*76 s_wb_adr[12]
*77 s_wb_adr[13]
*78 s_wb_adr[14]
*79 s_wb_adr[15]
*80 s_wb_adr[16]
*81 s_wb_adr[17]
*82 s_wb_adr[18]
*83 s_wb_adr[19]
*84 s_wb_adr[1]
*85 s_wb_adr[20]
*86 s_wb_adr[21]
*87 s_wb_adr[22]
*88 s_wb_adr[23]
*89 s_wb_adr[2]
*90 s_wb_adr[3]
*91 s_wb_adr[4]
*92 s_wb_adr[5]
*93 s_wb_adr[6]
*94 s_wb_adr[7]
*95 s_wb_adr[8]
*96 s_wb_adr[9]
*97 s_wb_cyc
*98 s_wb_err
*99 s_wb_i_dat[0]
*100 s_wb_i_dat[10]
*101 s_wb_i_dat[11]
*102 s_wb_i_dat[12]
*103 s_wb_i_dat[13]
*104 s_wb_i_dat[14]
*105 s_wb_i_dat[15]
*106 s_wb_i_dat[1]
*107 s_wb_i_dat[2]
*108 s_wb_i_dat[3]
*109 s_wb_i_dat[4]
*110 s_wb_i_dat[5]
*111 s_wb_i_dat[6]
*112 s_wb_i_dat[7]
*113 s_wb_i_dat[8]
*114 s_wb_i_dat[9]
*115 s_wb_o_dat[0]
*116 s_wb_o_dat[10]
*117 s_wb_o_dat[11]
*118 s_wb_o_dat[12]
*119 s_wb_o_dat[13]
*120 s_wb_o_dat[14]
*121 s_wb_o_dat[15]
*122 s_wb_o_dat[1]
*123 s_wb_o_dat[2]
*124 s_wb_o_dat[3]
*125 s_wb_o_dat[4]
*126 s_wb_o_dat[5]
*127 s_wb_o_dat[6]
*128 s_wb_o_dat[7]
*129 s_wb_o_dat[8]
*130 s_wb_o_dat[9]
*131 s_wb_sel[0]
*132 s_wb_sel[1]
*133 s_wb_stb
*134 s_wb_we
*137 _0000_
*138 _0001_
*139 _0002_
*140 _0003_
*141 _0004_
*142 _0005_
*143 _0006_
*144 _0007_
*145 _0008_
*146 _0009_
*147 _0010_
*148 _0011_
*149 _0012_
*150 _0013_
*151 _0014_
*152 _0015_
*153 _0016_
*154 _0017_
*155 _0018_
*156 _0019_
*157 _0020_
*158 _0021_
*159 _0022_
*160 _0023_
*161 _0024_
*162 _0025_
*163 _0026_
*164 _0027_
*165 _0028_
*166 _0029_
*167 _0030_
*168 _0031_
*169 _0032_
*170 _0033_
*171 _0034_
*172 _0035_
*173 _0036_
*174 _0037_
*175 _0038_
*176 _0039_
*177 _0040_
*178 _0041_
*179 _0042_
*180 _0043_
*181 _0044_
*182 _0045_
*183 _0046_
*184 _0047_
*185 _0048_
*186 _0049_
*187 _0050_
*188 _0051_
*189 _0052_
*190 _0053_
*191 _0054_
*192 _0055_
*193 _0056_
*194 _0057_
*195 _0058_
*196 _0059_
*197 _0060_
*198 _0061_
*199 _0062_
*200 _0063_
*201 _0064_
*202 _0065_
*203 _0066_
*204 _0067_
*205 _0068_
*206 _0069_
*207 _0070_
*208 _0071_
*209 _0072_
*210 _0073_
*211 _0074_
*212 _0075_
*213 _0076_
*214 _0077_
*215 _0078_
*216 _0079_
*217 _0080_
*218 _0081_
*219 _0082_
*220 _0083_
*221 _0084_
*222 _0085_
*223 _0086_
*224 _0087_
*225 _0088_
*226 _0089_
*227 _0090_
*228 _0091_
*229 _0092_
*230 _0093_
*231 _0094_
*232 _0095_
*233 _0096_
*234 _0097_
*235 _0098_
*236 _0099_
*237 _0100_
*238 _0101_
*239 _0102_
*240 _0103_
*241 _0104_
*242 _0105_
*243 _0106_
*244 _0107_
*245 _0108_
*246 _0109_
*247 _0110_
*248 _0111_
*249 _0112_
*250 _0113_
*251 _0114_
*252 _0115_
*253 _0116_
*254 _0117_
*255 _0118_
*256 _0119_
*257 _0120_
*258 _0121_
*259 _0122_
*260 _0123_
*261 _0124_
*262 _0125_
*263 _0126_
*264 _0127_
*265 _0128_
*266 _0129_
*267 _0130_
*268 _0131_
*269 _0132_
*270 _0133_
*271 _0134_
*272 _0135_
*273 _0136_
*274 _0137_
*275 _0138_
*276 _0139_
*277 _0140_
*278 _0141_
*279 _0142_
*280 _0143_
*281 _0144_
*282 _0145_
*283 _0146_
*284 _0147_
*285 _0148_
*286 _0149_
*287 _0150_
*288 _0151_
*289 _0152_
*290 _0153_
*291 _0154_
*292 _0155_
*293 _0156_
*294 _0157_
*295 _0158_
*296 _0159_
*297 _0160_
*298 _0161_
*299 _0162_
*300 _0163_
*301 _0164_
*302 _0165_
*303 _0166_
*304 _0167_
*305 _0168_
*306 _0169_
*307 _0170_
*308 _0171_
*309 _0172_
*310 _0173_
*311 _0174_
*312 _0175_
*313 _0176_
*314 _0177_
*315 _0178_
*316 _0179_
*317 _0180_
*318 _0181_
*319 _0182_
*320 _0183_
*321 _0184_
*322 _0185_
*323 _0186_
*324 _0187_
*325 _0188_
*326 _0189_
*327 _0190_
*328 _0191_
*329 _0192_
*330 _0193_
*331 _0194_
*332 _0195_
*333 _0196_
*334 _0197_
*335 _0198_
*336 _0199_
*337 _0200_
*338 _0201_
*339 _0202_
*340 _0203_
*341 _0204_
*342 _0205_
*343 _0206_
*344 _0207_
*345 _0208_
*346 _0209_
*347 _0210_
*348 _0211_
*349 _0212_
*350 _0213_
*351 _0214_
*352 _0215_
*353 _0216_
*354 _0217_
*355 _0218_
*356 _0219_
*357 _0220_
*358 _0221_
*359 _0222_
*360 _0223_
*361 _0224_
*362 _0225_
*363 _0226_
*364 _0227_
*365 _0228_
*366 _0229_
*367 _0230_
*368 _0231_
*369 _0232_
*370 _0233_
*371 _0234_
*372 _0235_
*373 _0236_
*374 _0237_
*375 _0238_
*376 _0239_
*377 _0240_
*378 _0241_
*379 _0242_
*380 _0243_
*381 _0244_
*382 _0245_
*383 _0246_
*384 _0247_
*385 _0248_
*386 _0249_
*387 _0250_
*388 _0251_
*389 _0252_
*390 _0253_
*391 _0254_
*392 _0255_
*393 _0256_
*394 _0257_
*395 _0258_
*396 _0259_
*397 _0260_
*398 _0261_
*399 _0262_
*400 _0263_
*401 _0264_
*402 _0265_
*403 _0266_
*404 _0267_
*405 _0268_
*406 _0269_
*407 _0270_
*408 _0271_
*409 _0272_
*410 _0273_
*411 _0274_
*412 _0275_
*413 _0276_
*414 _0277_
*415 _0278_
*416 _0279_
*417 _0280_
*418 _0281_
*419 _0282_
*420 _0283_
*421 _0284_
*422 _0285_
*423 _0286_
*424 _0287_
*425 _0288_
*426 _0289_
*427 _0290_
*428 _0291_
*429 _0292_
*430 _0293_
*431 _0294_
*432 _0295_
*433 _0296_
*434 _0297_
*435 _0298_
*436 _0299_
*437 _0300_
*438 _0301_
*439 _0302_
*440 _0303_
*441 _0304_
*442 _0305_
*443 _0306_
*444 _0307_
*445 _0308_
*446 _0309_
*447 _0310_
*448 _0311_
*449 _0312_
*450 _0313_
*451 _0314_
*452 _0315_
*453 _0316_
*454 _0317_
*455 _0318_
*456 _0319_
*457 _0320_
*458 _0321_
*459 _0322_
*460 _0323_
*461 _0324_
*462 _0325_
*463 _0326_
*464 _0327_
*465 _0328_
*466 _0329_
*467 _0330_
*468 _0331_
*469 _0332_
*470 _0333_
*471 _0334_
*472 _0335_
*473 _0336_
*474 _0337_
*475 _0338_
*476 _0339_
*477 _0340_
*478 _0341_
*479 _0342_
*480 _0343_
*481 _0344_
*482 _0345_
*483 _0346_
*484 _0347_
*485 _0348_
*486 _0349_
*487 _0350_
*488 _0351_
*489 _0352_
*490 _0353_
*491 _0354_
*492 _0355_
*493 _0356_
*494 _0357_
*495 _0358_
*496 _0359_
*497 _0360_
*498 _0361_
*499 _0362_
*500 _0363_
*501 _0364_
*502 _0365_
*503 _0366_
*504 _0367_
*505 _0368_
*506 _0369_
*507 _0370_
*508 _0371_
*509 _0372_
*510 _0373_
*511 _0374_
*512 _0375_
*513 _0376_
*514 _0377_
*515 _0378_
*516 _0379_
*517 _0380_
*518 _0381_
*519 _0382_
*520 _0383_
*521 _0384_
*522 _0385_
*523 _0386_
*524 _0387_
*525 _0388_
*526 _0389_
*527 _0390_
*528 _0391_
*529 _0392_
*530 _0393_
*531 _0394_
*532 _0395_
*533 _0396_
*534 _0397_
*535 _0398_
*536 _0399_
*537 _0400_
*538 _0401_
*539 _0402_
*540 _0403_
*541 _0404_
*542 _0405_
*543 _0406_
*544 _0407_
*545 _0408_
*546 _0409_
*547 _0410_
*548 _0411_
*549 _0412_
*550 _0413_
*551 _0414_
*552 _0415_
*553 _0416_
*554 _0417_
*555 _0418_
*556 _0419_
*557 _0420_
*558 _0421_
*559 _0422_
*560 _0423_
*561 _0424_
*562 _0425_
*563 _0426_
*564 _0427_
*565 _0428_
*566 _0429_
*567 _0430_
*568 _0431_
*569 _0432_
*570 _0433_
*571 _0434_
*572 _0435_
*573 _0436_
*574 ack_next_hold
*575 ack_xor_flag
*576 clknet_0_clk_m
*577 clknet_0_clk_s
*578 clknet_3_0__leaf_clk_m
*579 clknet_3_0__leaf_clk_s
*580 clknet_3_1__leaf_clk_m
*581 clknet_3_1__leaf_clk_s
*582 clknet_3_2__leaf_clk_m
*583 clknet_3_2__leaf_clk_s
*584 clknet_3_3__leaf_clk_m
*585 clknet_3_3__leaf_clk_s
*586 clknet_3_4__leaf_clk_m
*587 clknet_3_4__leaf_clk_s
*588 clknet_3_5__leaf_clk_m
*589 clknet_3_5__leaf_clk_s
*590 clknet_3_6__leaf_clk_m
*591 clknet_3_6__leaf_clk_s
*592 clknet_3_7__leaf_clk_m
*593 clknet_3_7__leaf_clk_s
*594 err_xor_flag
*595 m_burst_cnt\[0\]
*596 m_burst_cnt\[1\]
*597 m_burst_cnt\[2\]
*598 m_burst_cnt\[3\]
*599 m_new_req_flag
*600 m_s_sync\.d_xfer_xor_sync\[0\]
*601 m_s_sync\.d_xfer_xor_sync\[1\]
*602 m_s_sync\.d_xfer_xor_sync\[2\]
*603 m_s_sync\.s_data_ff\[0\]
*604 m_s_sync\.s_data_ff\[10\]
*605 m_s_sync\.s_data_ff\[11\]
*606 m_s_sync\.s_data_ff\[12\]
*607 m_s_sync\.s_data_ff\[13\]
*608 m_s_sync\.s_data_ff\[14\]
*609 m_s_sync\.s_data_ff\[15\]
*610 m_s_sync\.s_data_ff\[16\]
*611 m_s_sync\.s_data_ff\[17\]
*612 m_s_sync\.s_data_ff\[18\]
*613 m_s_sync\.s_data_ff\[19\]
*614 m_s_sync\.s_data_ff\[1\]
*615 m_s_sync\.s_data_ff\[20\]
*616 m_s_sync\.s_data_ff\[21\]
*617 m_s_sync\.s_data_ff\[22\]
*618 m_s_sync\.s_data_ff\[23\]
*619 m_s_sync\.s_data_ff\[24\]
*620 m_s_sync\.s_data_ff\[25\]
*621 m_s_sync\.s_data_ff\[26\]
*622 m_s_sync\.s_data_ff\[27\]
*623 m_s_sync\.s_data_ff\[28\]
*624 m_s_sync\.s_data_ff\[29\]
*625 m_s_sync\.s_data_ff\[2\]
*626 m_s_sync\.s_data_ff\[30\]
*627 m_s_sync\.s_data_ff\[31\]
*628 m_s_sync\.s_data_ff\[32\]
*629 m_s_sync\.s_data_ff\[33\]
*630 m_s_sync\.s_data_ff\[34\]
*631 m_s_sync\.s_data_ff\[35\]
*632 m_s_sync\.s_data_ff\[36\]
*633 m_s_sync\.s_data_ff\[37\]
*634 m_s_sync\.s_data_ff\[38\]
*635 m_s_sync\.s_data_ff\[39\]
*636 m_s_sync\.s_data_ff\[3\]
*637 m_s_sync\.s_data_ff\[40\]
*638 m_s_sync\.s_data_ff\[41\]
*639 m_s_sync\.s_data_ff\[42\]
*640 m_s_sync\.s_data_ff\[43\]
*641 m_s_sync\.s_data_ff\[44\]
*642 m_s_sync\.s_data_ff\[45\]
*643 m_s_sync\.s_data_ff\[46\]
*644 m_s_sync\.s_data_ff\[4\]
*645 m_s_sync\.s_data_ff\[5\]
*646 m_s_sync\.s_data_ff\[6\]
*647 m_s_sync\.s_data_ff\[7\]
*648 m_s_sync\.s_data_ff\[8\]
*649 m_s_sync\.s_data_ff\[9\]
*650 m_s_sync\.s_xfer_xor_flag
*651 msy_xor_ack
*652 msy_xor_err
*653 net1
*654 net10
*655 net100
*656 net101
*657 net102
*658 net103
*659 net104
*660 net105
*661 net106
*662 net107
*663 net108
*664 net109
*665 net11
*666 net110
*667 net111
*668 net112
*669 net113
*670 net114
*671 net115
*672 net116
*673 net117
*674 net118
*675 net119
*676 net12
*677 net120
*678 net121
*679 net122
*680 net123
*681 net124
*682 net125
*683 net126
*684 net127
*685 net128
*686 net129
*687 net13
*688 net130
*689 net131
*690 net14
*691 net15
*692 net16
*693 net17
*694 net18
*695 net19
*696 net2
*697 net20
*698 net21
*699 net22
*700 net23
*701 net24
*702 net25
*703 net26
*704 net27
*705 net28
*706 net29
*707 net3
*708 net30
*709 net31
*710 net32
*711 net33
*712 net34
*713 net35
*714 net36
*715 net37
*716 net38
*717 net39
*718 net4
*719 net40
*720 net41
*721 net42
*722 net43
*723 net44
*724 net45
*725 net46
*726 net47
*727 net48
*728 net49
*729 net5
*730 net50
*731 net51
*732 net52
*733 net53
*734 net54
*735 net55
*736 net56
*737 net57
*738 net58
*739 net59
*740 net6
*741 net60
*742 net61
*743 net62
*744 net63
*745 net64
*746 net65
*747 net66
*748 net67
*749 net68
*750 net69
*751 net7
*752 net70
*753 net71
*754 net72
*755 net73
*756 net74
*757 net75
*758 net76
*759 net77
*760 net78
*761 net79
*762 net8
*763 net80
*764 net81
*765 net82
*766 net83
*767 net84
*768 net85
*769 net86
*770 net87
*771 net88
*772 net89
*773 net9
*774 net90
*775 net91
*776 net92
*777 net93
*778 net94
*779 net95
*780 net96
*781 net97
*782 net98
*783 net99
*784 prev_ack
*785 prev_stb
*786 prev_xor_ack
*787 prev_xor_err
*788 prev_xor_newreq
*789 s_burst_cnt\[0\]
*790 s_burst_cnt\[1\]
*791 s_burst_cnt\[2\]
*792 s_burst_cnt\[3\]
*793 s_m_sync\.d_xfer_xor_sync\[0\]
*794 s_m_sync\.d_xfer_xor_sync\[1\]
*795 s_m_sync\.d_xfer_xor_sync\[2\]
*796 s_m_sync\.s_data_ff\[0\]
*797 s_m_sync\.s_data_ff\[10\]
*798 s_m_sync\.s_data_ff\[11\]
*799 s_m_sync\.s_data_ff\[12\]
*800 s_m_sync\.s_data_ff\[13\]
*801 s_m_sync\.s_data_ff\[14\]
*802 s_m_sync\.s_data_ff\[15\]
*803 s_m_sync\.s_data_ff\[16\]
*804 s_m_sync\.s_data_ff\[17\]
*805 s_m_sync\.s_data_ff\[1\]
*806 s_m_sync\.s_data_ff\[2\]
*807 s_m_sync\.s_data_ff\[3\]
*808 s_m_sync\.s_data_ff\[4\]
*809 s_m_sync\.s_data_ff\[5\]
*810 s_m_sync\.s_data_ff\[6\]
*811 s_m_sync\.s_data_ff\[7\]
*812 s_m_sync\.s_data_ff\[8\]
*813 s_m_sync\.s_data_ff\[9\]
*814 s_m_sync\.s_xfer_xor_flag
*815 ssy_flag_newreq
*816 ANTENNA__0438__A_N
*817 ANTENNA__0438__B
*818 ANTENNA__0440__A
*819 ANTENNA__0441__A
*820 ANTENNA__0442__B1
*821 ANTENNA__0443__A
*822 ANTENNA__0447__A0
*823 ANTENNA__0450__A0
*824 ANTENNA__0452__A0
*825 ANTENNA__0454__A0
*826 ANTENNA__0456__A0
*827 ANTENNA__0458__A0
*828 ANTENNA__0460__A0
*829 ANTENNA__0463__A0
*830 ANTENNA__0465__A0
*831 ANTENNA__0467__A0
*832 ANTENNA__0469__A0
*833 ANTENNA__0471__A0
*834 ANTENNA__0473__A0
*835 ANTENNA__0475__A0
*836 ANTENNA__0477__A0
*837 ANTENNA__0479__A0
*838 ANTENNA__0481__A0
*839 ANTENNA__0483__A0
*840 ANTENNA__0487__A
*841 ANTENNA__0487__B
*842 ANTENNA__0489__A
*843 ANTENNA__0490__A
*844 ANTENNA__0494__A
*845 ANTENNA__0496__A
*846 ANTENNA__0498__A2
*847 ANTENNA__0500__A1
*848 ANTENNA__0500__A2
*849 ANTENNA__0501__A1
*850 ANTENNA__0501__A2
*851 ANTENNA__0503__A1
*852 ANTENNA__0503__C1
*853 ANTENNA__0506__A
*854 ANTENNA__0506__B
*855 ANTENNA__0507__A
*856 ANTENNA__0509__A
*857 ANTENNA__0510__A0
*858 ANTENNA__0513__A
*859 ANTENNA__0515__A
*860 ANTENNA__0516__A1
*861 ANTENNA__0518__B
*862 ANTENNA__0525__C_N
*863 ANTENNA__0529__A
*864 ANTENNA__0529__B
*865 ANTENNA__0530__A
*866 ANTENNA__0530__B
*867 ANTENNA__0533__A1
*868 ANTENNA__0533__B1
*869 ANTENNA__0537__A
*870 ANTENNA__0539__A
*871 ANTENNA__0539__B
*872 ANTENNA__0541__A1
*873 ANTENNA__0542__B
*874 ANTENNA__0542__C_N
*875 ANTENNA__0546__A
*876 ANTENNA__0547__B1
*877 ANTENNA__0549__B
*878 ANTENNA__0550__B1
*879 ANTENNA__0551__A
*880 ANTENNA__0551__B
*881 ANTENNA__0553__A
*882 ANTENNA__0553__B
*883 ANTENNA__0555__A
*884 ANTENNA__0555__B
*885 ANTENNA__0557__A
*886 ANTENNA__0558__A
*887 ANTENNA__0560__B
*888 ANTENNA__0562__A1
*889 ANTENNA__0562__B1
*890 ANTENNA__0563__A1
*891 ANTENNA__0564__A1
*892 ANTENNA__0564__A2
*893 ANTENNA__0565__A0
*894 ANTENNA__0565__A1
*895 ANTENNA__0565__S
*896 ANTENNA__0567__A0
*897 ANTENNA__0567__A1
*898 ANTENNA__0567__S
*899 ANTENNA__0569__S
*900 ANTENNA__0571__S
*901 ANTENNA__0574__A0
*902 ANTENNA__0574__S
*903 ANTENNA__0576__A1
*904 ANTENNA__0576__S
*905 ANTENNA__0578__A1
*906 ANTENNA__0578__S
*907 ANTENNA__0580__A1
*908 ANTENNA__0580__S
*909 ANTENNA__0582__A1
*910 ANTENNA__0582__S
*911 ANTENNA__0584__A1
*912 ANTENNA__0584__S
*913 ANTENNA__0586__S
*914 ANTENNA__0588__A1
*915 ANTENNA__0588__S
*916 ANTENNA__0590__A1
*917 ANTENNA__0590__S
*918 ANTENNA__0592__A1
*919 ANTENNA__0592__S
*920 ANTENNA__0595__A1
*921 ANTENNA__0595__S
*922 ANTENNA__0597__A1
*923 ANTENNA__0597__S
*924 ANTENNA__0599__A1
*925 ANTENNA__0599__S
*926 ANTENNA__0601__A1
*927 ANTENNA__0601__S
*928 ANTENNA__0603__S
*929 ANTENNA__0605__A1
*930 ANTENNA__0605__S
*931 ANTENNA__0607__A1
*932 ANTENNA__0607__S
*933 ANTENNA__0609__A1
*934 ANTENNA__0609__S
*935 ANTENNA__0611__A1
*936 ANTENNA__0611__S
*937 ANTENNA__0613__A1
*938 ANTENNA__0613__S
*939 ANTENNA__0616__A1
*940 ANTENNA__0618__A1
*941 ANTENNA__0620__A1
*942 ANTENNA__0622__A1
*943 ANTENNA__0624__A1
*944 ANTENNA__0626__A1
*945 ANTENNA__0628__A1
*946 ANTENNA__0630__A1
*947 ANTENNA__0632__A1
*948 ANTENNA__0634__A1
*949 ANTENNA__0637__A1
*950 ANTENNA__0639__A1
*951 ANTENNA__0641__A1
*952 ANTENNA__0643__A1
*953 ANTENNA__0645__A1
*954 ANTENNA__0647__A1
*955 ANTENNA__0649__A1
*956 ANTENNA__0651__A1
*957 ANTENNA__0655__A1
*958 ANTENNA__0657__A1
*959 ANTENNA__0659__A1
*960 ANTENNA__0663__A1
*961 ANTENNA__0664__A
*962 ANTENNA__0666__A0
*963 ANTENNA__0666__A1
*964 ANTENNA__0667__A
*965 ANTENNA__0669__A0
*966 ANTENNA__0669__A1
*967 ANTENNA__0670__A
*968 ANTENNA__0672__A0
*969 ANTENNA__0672__A1
*970 ANTENNA__0673__A
*971 ANTENNA__0675__A0
*972 ANTENNA__0675__A1
*973 ANTENNA__0676__A
*974 ANTENNA__0678__A0
*975 ANTENNA__0678__A1
*976 ANTENNA__0679__A
*977 ANTENNA__0681__A1
*978 ANTENNA__0682__A
*979 ANTENNA__0684__A0
*980 ANTENNA__0684__A1
*981 ANTENNA__0685__A
*982 ANTENNA__0687__A0
*983 ANTENNA__0687__A1
*984 ANTENNA__0688__A
*985 ANTENNA__0690__A0
*986 ANTENNA__0690__A1
*987 ANTENNA__0693__A0
*988 ANTENNA__0693__A1
*989 ANTENNA__0696__A0
*990 ANTENNA__0696__A1
*991 ANTENNA__0699__A0
*992 ANTENNA__0699__A1
*993 ANTENNA__0702__A0
*994 ANTENNA__0702__A1
*995 ANTENNA__0705__A0
*996 ANTENNA__0705__A1
*997 ANTENNA__0708__A0
*998 ANTENNA__0708__A1
*999 ANTENNA__0711__A0
*1000 ANTENNA__0711__A1
*1001 ANTENNA__0714__A0
*1002 ANTENNA__0714__A1
*1003 ANTENNA__0717__A
*1004 ANTENNA__0717__B
*1005 ANTENNA__0719__A
*1006 ANTENNA__0721__A
*1007 ANTENNA__0723__A
*1008 ANTENNA__0723__B
*1009 ANTENNA__0724__A
*1010 ANTENNA__0728__A0
*1011 ANTENNA__0728__A1
*1012 ANTENNA__0728__S
*1013 ANTENNA__0729__A
*1014 ANTENNA__0731__A0
*1015 ANTENNA__0731__A1
*1016 ANTENNA__0731__S
*1017 ANTENNA__0732__A
*1018 ANTENNA__0734__A0
*1019 ANTENNA__0734__A1
*1020 ANTENNA__0734__S
*1021 ANTENNA__0735__A
*1022 ANTENNA__0737__A0
*1023 ANTENNA__0737__S
*1024 ANTENNA__0738__A
*1025 ANTENNA__0740__A
*1026 ANTENNA__0741__S
*1027 ANTENNA__0744__S
*1028 ANTENNA__0747__A0
*1029 ANTENNA__0747__A1
*1030 ANTENNA__0747__S
*1031 ANTENNA__0750__A0
*1032 ANTENNA__0750__A1
*1033 ANTENNA__0750__S
*1034 ANTENNA__0753__A0
*1035 ANTENNA__0753__A1
*1036 ANTENNA__0753__S
*1037 ANTENNA__0756__A0
*1038 ANTENNA__0756__A1
*1039 ANTENNA__0756__S
*1040 ANTENNA__0760__A0
*1041 ANTENNA__0760__A1
*1042 ANTENNA__0763__A0
*1043 ANTENNA__0766__A1
*1044 ANTENNA__0769__A0
*1045 ANTENNA__0769__A1
*1046 ANTENNA__0772__A
*1047 ANTENNA__0773__A0
*1048 ANTENNA__0773__A1
*1049 ANTENNA__0774__A
*1050 ANTENNA__0776__A0
*1051 ANTENNA__0776__A1
*1052 ANTENNA__0777__A
*1053 ANTENNA__0779__A0
*1054 ANTENNA__0779__A1
*1055 ANTENNA__0780__A
*1056 ANTENNA__0782__A1
*1057 ANTENNA__0783__A
*1058 ANTENNA__0785__A1
*1059 ANTENNA__0786__A
*1060 ANTENNA__0789__A
*1061 ANTENNA__0792__A0
*1062 ANTENNA__0792__A1
*1063 ANTENNA__0792__S
*1064 ANTENNA__0793__A
*1065 ANTENNA__0795__A1
*1066 ANTENNA__0795__S
*1067 ANTENNA__0796__A
*1068 ANTENNA__0798__A0
*1069 ANTENNA__0798__A1
*1070 ANTENNA__0798__S
*1071 ANTENNA__0799__A
*1072 ANTENNA__0801__A0
*1073 ANTENNA__0801__A1
*1074 ANTENNA__0801__S
*1075 ANTENNA__0802__A
*1076 ANTENNA__0804__A
*1077 ANTENNA__0805__A0
*1078 ANTENNA__0805__A1
*1079 ANTENNA__0805__S
*1080 ANTENNA__0808__A0
*1081 ANTENNA__0808__A1
*1082 ANTENNA__0808__S
*1083 ANTENNA__0811__A0
*1084 ANTENNA__0811__A1
*1085 ANTENNA__0811__S
*1086 ANTENNA__0814__A0
*1087 ANTENNA__0814__A1
*1088 ANTENNA__0814__S
*1089 ANTENNA__0817__A0
*1090 ANTENNA__0817__A1
*1091 ANTENNA__0817__S
*1092 ANTENNA__0820__A0
*1093 ANTENNA__0820__A1
*1094 ANTENNA__0820__S
*1095 ANTENNA__0824__A0
*1096 ANTENNA__0824__A1
*1097 ANTENNA__0827__A0
*1098 ANTENNA__0827__A1
*1099 ANTENNA__0830__A0
*1100 ANTENNA__0830__A1
*1101 ANTENNA__0833__A0
*1102 ANTENNA__0833__A1
*1103 ANTENNA__0836__A
*1104 ANTENNA__0837__A0
*1105 ANTENNA__0837__A1
*1106 ANTENNA__0840__A0
*1107 ANTENNA__0840__A1
*1108 ANTENNA__0843__A0
*1109 ANTENNA__0843__A1
*1110 ANTENNA__0846__A0
*1111 ANTENNA__0846__A1
*1112 ANTENNA__0849__A0
*1113 ANTENNA__0849__A1
*1114 ANTENNA__0852__A0
*1115 ANTENNA__0852__A1
*1116 ANTENNA__0855__A0
*1117 ANTENNA__0855__A1
*1118 ANTENNA__0858__A0
*1119 ANTENNA__0858__A1
*1120 ANTENNA__0861__A0
*1121 ANTENNA__0861__A1
*1122 ANTENNA__0864__A0
*1123 ANTENNA__0867__A0
*1124 ANTENNA__0867__A1
*1125 ANTENNA__0868__A
*1126 ANTENNA__0870__A0
*1127 ANTENNA__0870__A1
*1128 ANTENNA__0871__A
*1129 ANTENNA__0873__A0
*1130 ANTENNA__0873__A1
*1131 ANTENNA__0874__A
*1132 ANTENNA__0901__D
*1133 ANTENNA__0910__D
*1134 ANTENNA__0965__D
*1135 ANTENNA__0972__D
*1136 ANTENNA__1021__D
*1137 ANTENNA__1022__D
*1138 ANTENNA__1023__D
*1139 ANTENNA_clkbuf_0_clk_m_A
*1140 ANTENNA_clkbuf_0_clk_s_A
*1141 ANTENNA_input10_A
*1142 ANTENNA_input11_A
*1143 ANTENNA_input12_A
*1144 ANTENNA_input13_A
*1145 ANTENNA_input14_A
*1146 ANTENNA_input15_A
*1147 ANTENNA_input16_A
*1148 ANTENNA_input17_A
*1149 ANTENNA_input18_A
*1150 ANTENNA_input19_A
*1151 ANTENNA_input1_A
*1152 ANTENNA_input20_A
*1153 ANTENNA_input21_A
*1154 ANTENNA_input22_A
*1155 ANTENNA_input23_A
*1156 ANTENNA_input24_A
*1157 ANTENNA_input25_A
*1158 ANTENNA_input26_A
*1159 ANTENNA_input27_A
*1160 ANTENNA_input28_A
*1161 ANTENNA_input29_A
*1162 ANTENNA_input2_A
*1163 ANTENNA_input30_A
*1164 ANTENNA_input31_A
*1165 ANTENNA_input32_A
*1166 ANTENNA_input33_A
*1167 ANTENNA_input34_A
*1168 ANTENNA_input35_A
*1169 ANTENNA_input36_A
*1170 ANTENNA_input37_A
*1171 ANTENNA_input38_A
*1172 ANTENNA_input39_A
*1173 ANTENNA_input3_A
*1174 ANTENNA_input40_A
*1175 ANTENNA_input41_A
*1176 ANTENNA_input42_A
*1177 ANTENNA_input43_A
*1178 ANTENNA_input44_A
*1179 ANTENNA_input45_A
*1180 ANTENNA_input46_A
*1181 ANTENNA_input47_A
*1182 ANTENNA_input48_A
*1183 ANTENNA_input49_A
*1184 ANTENNA_input4_A
*1185 ANTENNA_input50_A
*1186 ANTENNA_input51_A
*1187 ANTENNA_input52_A
*1188 ANTENNA_input53_A
*1189 ANTENNA_input54_A
*1190 ANTENNA_input55_A
*1191 ANTENNA_input56_A
*1192 ANTENNA_input57_A
*1193 ANTENNA_input58_A
*1194 ANTENNA_input59_A
*1195 ANTENNA_input5_A
*1196 ANTENNA_input60_A
*1197 ANTENNA_input61_A
*1198 ANTENNA_input62_A
*1199 ANTENNA_input63_A
*1200 ANTENNA_input64_A
*1201 ANTENNA_input65_A
*1202 ANTENNA_input66_A
*1203 ANTENNA_input67_A
*1204 ANTENNA_input6_A
*1205 ANTENNA_input7_A
*1206 ANTENNA_input8_A
*1207 ANTENNA_input9_A
*1208 ANTENNA_output100_A
*1209 ANTENNA_output101_A
*1210 ANTENNA_output102_A
*1211 ANTENNA_output103_A
*1212 ANTENNA_output104_A
*1213 ANTENNA_output105_A
*1214 ANTENNA_output106_A
*1215 ANTENNA_output107_A
*1216 ANTENNA_output108_A
*1217 ANTENNA_output109_A
*1218 ANTENNA_output110_A
*1219 ANTENNA_output111_A
*1220 ANTENNA_output112_A
*1221 ANTENNA_output113_A
*1222 ANTENNA_output117_A
*1223 ANTENNA_output119_A
*1224 ANTENNA_output120_A
*1225 ANTENNA_output121_A
*1226 ANTENNA_output122_A
*1227 ANTENNA_output123_A
*1228 ANTENNA_output125_A
*1229 ANTENNA_output126_A
*1230 ANTENNA_output127_A
*1231 ANTENNA_output128_A
*1232 ANTENNA_output68_A
*1233 ANTENNA_output69_A
*1234 ANTENNA_output70_A
*1235 ANTENNA_output71_A
*1236 ANTENNA_output72_A
*1237 ANTENNA_output73_A
*1238 ANTENNA_output74_A
*1239 ANTENNA_output75_A
*1240 ANTENNA_output76_A
*1241 ANTENNA_output77_A
*1242 ANTENNA_output78_A
*1243 ANTENNA_output80_A
*1244 ANTENNA_output81_A
*1245 ANTENNA_output82_A
*1246 ANTENNA_output83_A
*1247 ANTENNA_output84_A
*1248 ANTENNA_output85_A
*1249 ANTENNA_output86_A
*1250 ANTENNA_output87_A
*1251 ANTENNA_output88_A
*1252 ANTENNA_output89_A
*1253 ANTENNA_output90_A
*1254 ANTENNA_output91_A
*1255 ANTENNA_output92_A
*1256 ANTENNA_output93_A
*1257 ANTENNA_output94_A
*1258 ANTENNA_output95_A
*1259 ANTENNA_output96_A
*1260 ANTENNA_output97_A
*1261 ANTENNA_output98_A
*1262 ANTENNA_output99_A
*1263 FILLER_0_10
*1264 FILLER_0_105
*1265 FILLER_0_111
*1266 FILLER_0_115
*1267 FILLER_0_122
*1268 FILLER_0_129
*1269 FILLER_0_136
*1270 FILLER_0_143
*1271 FILLER_0_150
*1272 FILLER_0_157
*1273 FILLER_0_164
*1274 FILLER_0_169
*1275 FILLER_0_176
*1276 FILLER_0_184
*1277 FILLER_0_192
*1278 FILLER_0_206
*1279 FILLER_0_212
*1280 FILLER_0_220
*1281 FILLER_0_225
*1282 FILLER_0_229
*1283 FILLER_0_24
*1284 FILLER_0_246
*1285 FILLER_0_257
*1286 FILLER_0_265
*1287 FILLER_0_273
*1288 FILLER_0_279
*1289 FILLER_0_285
*1290 FILLER_0_293
*1291 FILLER_0_3
*1292 FILLER_0_301
*1293 FILLER_0_307
*1294 FILLER_0_312
*1295 FILLER_0_319
*1296 FILLER_0_326
*1297 FILLER_0_332
*1298 FILLER_0_337
*1299 FILLER_0_341
*1300 FILLER_0_358
*1301 FILLER_0_368
*1302 FILLER_0_388
*1303 FILLER_0_39
*1304 FILLER_0_403
*1305 FILLER_0_45
*1306 FILLER_0_52
*1307 FILLER_0_59
*1308 FILLER_0_66
*1309 FILLER_0_73
*1310 FILLER_0_80
*1311 FILLER_0_85
*1312 FILLER_0_89
*1313 FILLER_0_96
*1314 FILLER_10_105
*1315 FILLER_10_110
*1316 FILLER_10_122
*1317 FILLER_10_126
*1318 FILLER_10_138
*1319 FILLER_10_141
*1320 FILLER_10_149
*1321 FILLER_10_15
*1322 FILLER_10_164
*1323 FILLER_10_170
*1324 FILLER_10_185
*1325 FILLER_10_192
*1326 FILLER_10_200
*1327 FILLER_10_206
*1328 FILLER_10_218
*1329 FILLER_10_240
*1330 FILLER_10_253
*1331 FILLER_10_265
*1332 FILLER_10_27
*1333 FILLER_10_289
*1334 FILLER_10_29
*1335 FILLER_10_3
*1336 FILLER_10_301
*1337 FILLER_10_307
*1338 FILLER_10_309
*1339 FILLER_10_315
*1340 FILLER_10_336
*1341 FILLER_10_356
*1342 FILLER_10_374
*1343 FILLER_10_383
*1344 FILLER_10_403
*1345 FILLER_10_41
*1346 FILLER_10_53
*1347 FILLER_10_65
*1348 FILLER_10_77
*1349 FILLER_10_83
*1350 FILLER_10_85
*1351 FILLER_10_97
*1352 FILLER_11_101
*1353 FILLER_11_107
*1354 FILLER_11_111
*1355 FILLER_11_113
*1356 FILLER_11_124
*1357 FILLER_11_130
*1358 FILLER_11_134
*1359 FILLER_11_138
*1360 FILLER_11_148
*1361 FILLER_11_15
*1362 FILLER_11_152
*1363 FILLER_11_156
*1364 FILLER_11_162
*1365 FILLER_11_169
*1366 FILLER_11_175
*1367 FILLER_11_198
*1368 FILLER_11_202
*1369 FILLER_11_211
*1370 FILLER_11_217
*1371 FILLER_11_223
*1372 FILLER_11_241
*1373 FILLER_11_253
*1374 FILLER_11_265
*1375 FILLER_11_27
*1376 FILLER_11_277
*1377 FILLER_11_297
*1378 FILLER_11_3
*1379 FILLER_11_309
*1380 FILLER_11_321
*1381 FILLER_11_333
*1382 FILLER_11_339
*1383 FILLER_11_347
*1384 FILLER_11_351
*1385 FILLER_11_360
*1386 FILLER_11_366
*1387 FILLER_11_372
*1388 FILLER_11_378
*1389 FILLER_11_384
*1390 FILLER_11_39
*1391 FILLER_11_395
*1392 FILLER_11_401
*1393 FILLER_11_51
*1394 FILLER_11_55
*1395 FILLER_11_57
*1396 FILLER_11_69
*1397 FILLER_11_81
*1398 FILLER_11_93
*1399 FILLER_12_105
*1400 FILLER_12_113
*1401 FILLER_12_117
*1402 FILLER_12_123
*1403 FILLER_12_135
*1404 FILLER_12_139
*1405 FILLER_12_144
*1406 FILLER_12_15
*1407 FILLER_12_150
*1408 FILLER_12_162
*1409 FILLER_12_170
*1410 FILLER_12_174
*1411 FILLER_12_181
*1412 FILLER_12_189
*1413 FILLER_12_192
*1414 FILLER_12_206
*1415 FILLER_12_212
*1416 FILLER_12_218
*1417 FILLER_12_238
*1418 FILLER_12_250
*1419 FILLER_12_253
*1420 FILLER_12_259
*1421 FILLER_12_27
*1422 FILLER_12_276
*1423 FILLER_12_284
*1424 FILLER_12_29
*1425 FILLER_12_3
*1426 FILLER_12_302
*1427 FILLER_12_309
*1428 FILLER_12_317
*1429 FILLER_12_336
*1430 FILLER_12_348
*1431 FILLER_12_351
*1432 FILLER_12_357
*1433 FILLER_12_363
*1434 FILLER_12_368
*1435 FILLER_12_374
*1436 FILLER_12_391
*1437 FILLER_12_397
*1438 FILLER_12_403
*1439 FILLER_12_41
*1440 FILLER_12_53
*1441 FILLER_12_65
*1442 FILLER_12_77
*1443 FILLER_12_83
*1444 FILLER_12_85
*1445 FILLER_12_93
*1446 FILLER_13_107
*1447 FILLER_13_111
*1448 FILLER_13_122
*1449 FILLER_13_128
*1450 FILLER_13_136
*1451 FILLER_13_148
*1452 FILLER_13_15
*1453 FILLER_13_154
*1454 FILLER_13_164
*1455 FILLER_13_176
*1456 FILLER_13_182
*1457 FILLER_13_190
*1458 FILLER_13_194
*1459 FILLER_13_200
*1460 FILLER_13_209
*1461 FILLER_13_216
*1462 FILLER_13_225
*1463 FILLER_13_245
*1464 FILLER_13_265
*1465 FILLER_13_27
*1466 FILLER_13_277
*1467 FILLER_13_297
*1468 FILLER_13_3
*1469 FILLER_13_305
*1470 FILLER_13_322
*1471 FILLER_13_334
*1472 FILLER_13_337
*1473 FILLER_13_345
*1474 FILLER_13_363
*1475 FILLER_13_383
*1476 FILLER_13_39
*1477 FILLER_13_391
*1478 FILLER_13_393
*1479 FILLER_13_397
*1480 FILLER_13_400
*1481 FILLER_13_406
*1482 FILLER_13_51
*1483 FILLER_13_55
*1484 FILLER_13_57
*1485 FILLER_13_69
*1486 FILLER_13_81
*1487 FILLER_13_93
*1488 FILLER_14_109
*1489 FILLER_14_121
*1490 FILLER_14_133
*1491 FILLER_14_139
*1492 FILLER_14_141
*1493 FILLER_14_15
*1494 FILLER_14_162
*1495 FILLER_14_168
*1496 FILLER_14_176
*1497 FILLER_14_188
*1498 FILLER_14_197
*1499 FILLER_14_201
*1500 FILLER_14_207
*1501 FILLER_14_214
*1502 FILLER_14_222
*1503 FILLER_14_241
*1504 FILLER_14_249
*1505 FILLER_14_253
*1506 FILLER_14_265
*1507 FILLER_14_27
*1508 FILLER_14_29
*1509 FILLER_14_291
*1510 FILLER_14_3
*1511 FILLER_14_303
*1512 FILLER_14_307
*1513 FILLER_14_309
*1514 FILLER_14_321
*1515 FILLER_14_347
*1516 FILLER_14_359
*1517 FILLER_14_363
*1518 FILLER_14_365
*1519 FILLER_14_377
*1520 FILLER_14_389
*1521 FILLER_14_395
*1522 FILLER_14_401
*1523 FILLER_14_41
*1524 FILLER_14_53
*1525 FILLER_14_65
*1526 FILLER_14_77
*1527 FILLER_14_83
*1528 FILLER_14_85
*1529 FILLER_14_97
*1530 FILLER_15_105
*1531 FILLER_15_111
*1532 FILLER_15_116
*1533 FILLER_15_128
*1534 FILLER_15_140
*1535 FILLER_15_15
*1536 FILLER_15_161
*1537 FILLER_15_167
*1538 FILLER_15_171
*1539 FILLER_15_183
*1540 FILLER_15_187
*1541 FILLER_15_193
*1542 FILLER_15_201
*1543 FILLER_15_205
*1544 FILLER_15_209
*1545 FILLER_15_221
*1546 FILLER_15_225
*1547 FILLER_15_237
*1548 FILLER_15_241
*1549 FILLER_15_262
*1550 FILLER_15_27
*1551 FILLER_15_274
*1552 FILLER_15_281
*1553 FILLER_15_293
*1554 FILLER_15_297
*1555 FILLER_15_3
*1556 FILLER_15_314
*1557 FILLER_15_326
*1558 FILLER_15_334
*1559 FILLER_15_337
*1560 FILLER_15_349
*1561 FILLER_15_375
*1562 FILLER_15_387
*1563 FILLER_15_39
*1564 FILLER_15_391
*1565 FILLER_15_393
*1566 FILLER_15_403
*1567 FILLER_15_51
*1568 FILLER_15_55
*1569 FILLER_15_57
*1570 FILLER_15_69
*1571 FILLER_15_81
*1572 FILLER_15_93
*1573 FILLER_16_109
*1574 FILLER_16_121
*1575 FILLER_16_136
*1576 FILLER_16_141
*1577 FILLER_16_15
*1578 FILLER_16_151
*1579 FILLER_16_157
*1580 FILLER_16_164
*1581 FILLER_16_171
*1582 FILLER_16_178
*1583 FILLER_16_185
*1584 FILLER_16_192
*1585 FILLER_16_200
*1586 FILLER_16_212
*1587 FILLER_16_240
*1588 FILLER_16_253
*1589 FILLER_16_261
*1590 FILLER_16_27
*1591 FILLER_16_278
*1592 FILLER_16_29
*1593 FILLER_16_290
*1594 FILLER_16_3
*1595 FILLER_16_302
*1596 FILLER_16_309
*1597 FILLER_16_317
*1598 FILLER_16_334
*1599 FILLER_16_354
*1600 FILLER_16_362
*1601 FILLER_16_381
*1602 FILLER_16_385
*1603 FILLER_16_403
*1604 FILLER_16_41
*1605 FILLER_16_53
*1606 FILLER_16_65
*1607 FILLER_16_77
*1608 FILLER_16_83
*1609 FILLER_16_85
*1610 FILLER_16_97
*1611 FILLER_17_105
*1612 FILLER_17_111
*1613 FILLER_17_113
*1614 FILLER_17_125
*1615 FILLER_17_137
*1616 FILLER_17_149
*1617 FILLER_17_15
*1618 FILLER_17_160
*1619 FILLER_17_169
*1620 FILLER_17_179
*1621 FILLER_17_194