*SPEF "ieee 1481-1999"
*DESIGN "wb_compressor"
*DATE "11:11:11 Fri 11 11, 1111"
*VENDOR "OpenRCX"
*PROGRAM "Parallel Extraction"
*VERSION "1.0"
*DESIGN_FLOW "NAME_SCOPE LOCAL" "PIN_CAP NONE"
*DIVIDER /
*DELIMITER :
*BUS_DELIMITER []
*T_UNIT 1 NS
*C_UNIT 1 PF
*R_UNIT 1 OHM
*L_UNIT 1 HENRY

*NAME_MAP
*1 cw_ack
*2 cw_dir
*3 cw_err
*4 cw_io_i[0]
*5 cw_io_i[10]
*6 cw_io_i[11]
*7 cw_io_i[12]
*8 cw_io_i[13]
*9 cw_io_i[14]
*10 cw_io_i[15]
*11 cw_io_i[1]
*12 cw_io_i[2]
*13 cw_io_i[3]
*14 cw_io_i[4]
*15 cw_io_i[5]
*16 cw_io_i[6]
*17 cw_io_i[7]
*18 cw_io_i[8]
*19 cw_io_i[9]
*20 cw_io_o[0]
*21 cw_io_o[10]
*22 cw_io_o[11]
*23 cw_io_o[12]
*24 cw_io_o[13]
*25 cw_io_o[14]
*26 cw_io_o[15]
*27 cw_io_o[1]
*28 cw_io_o[2]
*29 cw_io_o[3]
*30 cw_io_o[4]
*31 cw_io_o[5]
*32 cw_io_o[6]
*33 cw_io_o[7]
*34 cw_io_o[8]
*35 cw_io_o[9]
*36 cw_req
*37 i_clk
*38 i_rst
*41 wb_4_burst
*42 wb_8_burst
*43 wb_ack
*44 wb_adr[0]
*45 wb_adr[10]
*46 wb_adr[11]
*47 wb_adr[12]
*48 wb_adr[13]
*49 wb_adr[14]
*50 wb_adr[15]
*51 wb_adr[16]
*52 wb_adr[17]
*53 wb_adr[18]
*54 wb_adr[19]
*55 wb_adr[1]
*56 wb_adr[20]
*57 wb_adr[21]
*58 wb_adr[22]
*59 wb_adr[23]
*60 wb_adr[2]
*61 wb_adr[3]
*62 wb_adr[4]
*63 wb_adr[5]
*64 wb_adr[6]
*65 wb_adr[7]
*66 wb_adr[8]
*67 wb_adr[9]
*68 wb_cyc
*69 wb_err
*70 wb_i_dat[0]
*71 wb_i_dat[10]
*72 wb_i_dat[11]
*73 wb_i_dat[12]
*74 wb_i_dat[13]
*75 wb_i_dat[14]
*76 wb_i_dat[15]
*77 wb_i_dat[1]
*78 wb_i_dat[2]
*79 wb_i_dat[3]
*80 wb_i_dat[4]
*81 wb_i_dat[5]
*82 wb_i_dat[6]
*83 wb_i_dat[7]
*84 wb_i_dat[8]
*85 wb_i_dat[9]
*86 wb_o_dat[0]
*87 wb_o_dat[10]
*88 wb_o_dat[11]
*89 wb_o_dat[12]
*90 wb_o_dat[13]
*91 wb_o_dat[14]
*92 wb_o_dat[15]
*93 wb_o_dat[1]
*94 wb_o_dat[2]
*95 wb_o_dat[3]
*96 wb_o_dat[4]
*97 wb_o_dat[5]
*98 wb_o_dat[6]
*99 wb_o_dat[7]
*100 wb_o_dat[8]
*101 wb_o_dat[9]
*102 wb_sel[0]
*103 wb_sel[1]
*104 wb_stb
*105 wb_we
*106 _000_
*107 _001_
*108 _002_
*109 _003_
*110 _004_
*111 _005_
*112 _006_
*113 _007_
*114 _008_
*115 _009_
*116 _010_
*117 _011_
*118 _012_
*119 _013_
*120 _014_
*121 _015_
*122 _016_
*123 _017_
*124 _018_
*125 _019_
*126 _020_
*127 _021_
*128 _022_
*129 _023_
*130 _024_
*131 _025_
*132 _026_
*133 _027_
*134 _028_
*135 _029_
*136 _030_
*137 _031_
*138 _032_
*139 _033_
*140 _034_
*141 _035_
*142 _036_
*143 _037_
*144 _038_
*145 _039_
*146 _040_
*147 _041_
*148 _042_
*149 _043_
*150 _044_
*151 _045_
*152 _046_
*153 _047_
*154 _048_
*155 _049_
*156 _050_
*157 _051_
*158 _052_
*159 _053_
*160 _054_
*161 _055_
*162 _056_
*163 _057_
*164 _058_
*165 _059_
*166 _060_
*167 _061_
*168 _062_
*169 _063_
*170 _064_
*171 _065_
*172 _066_
*173 _067_
*174 _068_
*175 _069_
*176 _070_
*177 _071_
*178 _072_
*179 _073_
*180 _074_
*181 _075_
*182 _076_
*183 _077_
*184 _078_
*185 _079_
*186 _080_
*187 _081_
*188 _082_
*189 _083_
*190 _084_
*191 _085_
*192 _086_
*193 _087_
*194 _088_
*195 _089_
*196 _090_
*197 _091_
*198 _092_
*199 _093_
*200 _094_
*201 _095_
*202 _096_
*203 _097_
*204 _098_
*205 _099_
*206 _100_
*207 _101_
*208 _102_
*209 _103_
*210 _104_
*211 _105_
*212 _106_
*213 _107_
*214 _108_
*215 _109_
*216 _110_
*217 _111_
*218 _112_
*219 _113_
*220 _114_
*221 _115_
*222 _116_
*223 _117_
*224 _118_
*225 _119_
*226 _120_
*227 _121_
*228 _122_
*229 _123_
*230 _124_
*231 _125_
*232 _126_
*233 _127_
*234 _128_
*235 _129_
*236 _130_
*237 _131_
*238 _132_
*239 _133_
*240 _134_
*241 _135_
*242 _136_
*243 _137_
*244 _138_
*245 _139_
*246 _140_
*247 _141_
*248 _142_
*249 _143_
*250 _144_
*251 _145_
*252 _146_
*253 _147_
*254 _148_
*255 _149_
*256 _150_
*257 _151_
*258 _152_
*259 _153_
*260 _154_
*261 _155_
*262 _156_
*263 _157_
*264 _158_
*265 _159_
*266 _160_
*267 _161_
*268 _162_
*269 _163_
*270 _164_
*271 _165_
*272 _166_
*273 _167_
*274 _168_
*275 _169_
*276 _170_
*277 _171_
*278 _172_
*279 _173_
*280 _174_
*281 _175_
*282 _176_
*283 _177_
*284 _178_
*285 _179_
*286 _180_
*287 burst_cnt\[0\]
*288 burst_cnt\[1\]
*289 burst_cnt\[2\]
*290 burst_end\[0\]
*291 burst_end\[2\]
*292 clknet_0_i_clk
*293 clknet_2_0__leaf_i_clk
*294 clknet_2_1__leaf_i_clk
*295 clknet_2_2__leaf_i_clk
*296 clknet_2_3__leaf_i_clk
*297 l_we
*298 net1
*299 net10
*300 net100
*301 net101
*302 net102
*303 net11
*304 net12
*305 net13
*306 net14
*307 net15
*308 net16
*309 net17
*310 net18
*311 net19
*312 net2
*313 net20
*314 net21
*315 net22
*316 net23
*317 net24
*318 net25
*319 net26
*320 net27
*321 net28
*322 net29
*323 net3
*324 net30
*325 net31
*326 net32
*327 net33
*328 net34
*329 net35
*330 net36
*331 net37
*332 net38
*333 net39
*334 net4
*335 net40
*336 net41
*337 net42
*338 net43
*339 net44
*340 net45
*341 net46
*342 net47
*343 net48
*344 net49
*345 net5
*346 net50
*347 net51
*348 net52
*349 net53
*350 net54
*351 net55
*352 net56
*353 net57
*354 net58
*355 net59
*356 net6
*357 net60
*358 net61
*359 net62
*360 net63
*361 net64
*362 net65
*363 net66
*364 net67
*365 net68
*366 net69
*367 net7
*368 net70
*369 net71
*370 net72
*371 net73
*372 net74
*373 net75
*374 net76
*375 net77
*376 net78
*377 net79
*378 net8
*379 net80
*380 net81
*381 net82
*382 net83
*383 net84
*384 net85
*385 net86
*386 net87
*387 net88
*388 net89
*389 net9
*390 net90
*391 net91
*392 net92
*393 net93
*394 net94
*395 net95
*396 net96
*397 net97
*398 net98
*399 net99
*400 state\[0\]
*401 state\[1\]
*402 state\[2\]
*403 state\[3\]
*404 state\[4\]
*405 state\[5\]
*406 state\[6\]
*407 ANTENNA__185__A
*408 ANTENNA__186__A2
*409 ANTENNA__190__B1
*410 ANTENNA__193__C
*411 ANTENNA__194__A1
*412 ANTENNA__194__A2
*413 ANTENNA__194__C1
*414 ANTENNA__195__A2
*415 ANTENNA__197__B
*416 ANTENNA__205__A1
*417 ANTENNA__205__A2
*418 ANTENNA__205__C1
*419 ANTENNA__206__B
*420 ANTENNA__214__A
*421 ANTENNA__216__A
*422 ANTENNA__220__A
*423 ANTENNA__222__B1
*424 ANTENNA__223__A1
*425 ANTENNA__224__B2
*426 ANTENNA__227__A0
*427 ANTENNA__227__A1
*428 ANTENNA__229__A0
*429 ANTENNA__229__A1
*430 ANTENNA__231__A0
*431 ANTENNA__231__A1
*432 ANTENNA__233__A0
*433 ANTENNA__233__A1
*434 ANTENNA__235__A0
*435 ANTENNA__235__A1
*436 ANTENNA__237__A0
*437 ANTENNA__237__A1
*438 ANTENNA__239__A0
*439 ANTENNA__239__A1
*440 ANTENNA__241__A0
*441 ANTENNA__241__A1
*442 ANTENNA__243__A0
*443 ANTENNA__243__A1
*444 ANTENNA__245__A0
*445 ANTENNA__245__A1
*446 ANTENNA__245__S
*447 ANTENNA__247__A0
*448 ANTENNA__247__A1
*449 ANTENNA__247__S
*450 ANTENNA__249__A0
*451 ANTENNA__249__A1
*452 ANTENNA__249__S
*453 ANTENNA__251__A0
*454 ANTENNA__251__A1
*455 ANTENNA__251__S
*456 ANTENNA__253__A0
*457 ANTENNA__253__A1
*458 ANTENNA__253__S
*459 ANTENNA__255__A0
*460 ANTENNA__255__A1
*461 ANTENNA__255__S
*462 ANTENNA__257__A0
*463 ANTENNA__257__A1
*464 ANTENNA__257__S
*465 ANTENNA__274__B1
*466 ANTENNA__283__B
*467 ANTENNA__286__A1
*468 ANTENNA__290__A2
*469 ANTENNA__292__A1
*470 ANTENNA__294__A2
*471 ANTENNA__296__A1
*472 ANTENNA__298__A2
*473 ANTENNA__299__A1
*474 ANTENNA__300__A1
*475 ANTENNA__303__A1
*476 ANTENNA__304__A1
*477 ANTENNA__306__A_N
*478 ANTENNA__306__B
*479 ANTENNA__308__A1
*480 ANTENNA__311__A1
*481 ANTENNA__314__A1
*482 ANTENNA__318__A1
*483 ANTENNA__322__A1
*484 ANTENNA__326__A1
*485 ANTENNA__330__A1
*486 ANTENNA__332__B1
*487 ANTENNA__334__A1
*488 ANTENNA__338__A1
*489 ANTENNA__340__B1
*490 ANTENNA__342__A1
*491 ANTENNA__344__B1
*492 ANTENNA__346__A1
*493 ANTENNA__348__A
*494 ANTENNA__353__A1
*495 ANTENNA__357__A1
*496 ANTENNA__357__A2
*497 ANTENNA__358__A0
*498 ANTENNA__360__A0
*499 ANTENNA_clkbuf_0_i_clk_A
*500 ANTENNA_input10_A
*501 ANTENNA_input11_A
*502 ANTENNA_input12_A
*503 ANTENNA_input13_A
*504 ANTENNA_input14_A
*505 ANTENNA_input15_A
*506 ANTENNA_input16_A
*507 ANTENNA_input17_A
*508 ANTENNA_input18_A
*509 ANTENNA_input19_A
*510 ANTENNA_input1_A
*511 ANTENNA_input20_A
*512 ANTENNA_input21_A
*513 ANTENNA_input22_A
*514 ANTENNA_input23_A
*515 ANTENNA_input24_A
*516 ANTENNA_input25_A
*517 ANTENNA_input26_A
*518 ANTENNA_input27_A
*519 ANTENNA_input28_A
*520 ANTENNA_input29_A
*521 ANTENNA_input2_A
*522 ANTENNA_input30_A
*523 ANTENNA_input31_A
*524 ANTENNA_input32_A
*525 ANTENNA_input33_A
*526 ANTENNA_input34_A
*527 ANTENNA_input35_A
*528 ANTENNA_input36_A
*529 ANTENNA_input37_A
*530 ANTENNA_input38_A
*531 ANTENNA_input39_A
*532 ANTENNA_input3_A
*533 ANTENNA_input40_A
*534 ANTENNA_input41_A
*535 ANTENNA_input42_A
*536 ANTENNA_input43_A
*537 ANTENNA_input44_A
*538 ANTENNA_input45_A
*539 ANTENNA_input46_A
*540 ANTENNA_input47_A
*541 ANTENNA_input48_A
*542 ANTENNA_input49_A
*543 ANTENNA_input4_A
*544 ANTENNA_input50_A
*545 ANTENNA_input51_A
*546 ANTENNA_input52_A
*547 ANTENNA_input53_A
*548 ANTENNA_input54_A
*549 ANTENNA_input55_A
*550 ANTENNA_input56_A
*551 ANTENNA_input57_A
*552 ANTENNA_input58_A
*553 ANTENNA_input59_A
*554 ANTENNA_input5_A
*555 ANTENNA_input60_A
*556 ANTENNA_input61_A
*557 ANTENNA_input62_A
*558 ANTENNA_input63_A
*559 ANTENNA_input64_A
*560 ANTENNA_input65_A
*561 ANTENNA_input66_A
*562 ANTENNA_input6_A
*563 ANTENNA_input7_A
*564 ANTENNA_input8_A
*565 ANTENNA_input9_A
*566 ANTENNA_output100_A
*567 ANTENNA_output101_A
*568 ANTENNA_output102_A
*569 ANTENNA_output67_A
*570 ANTENNA_output68_A
*571 ANTENNA_output69_A
*572 ANTENNA_output70_A
*573 ANTENNA_output71_A
*574 ANTENNA_output72_A
*575 ANTENNA_output73_A
*576 ANTENNA_output74_A
*577 ANTENNA_output75_A
*578 ANTENNA_output76_A
*579 ANTENNA_output77_A
*580 ANTENNA_output78_A
*581 ANTENNA_output79_A
*582 ANTENNA_output80_A
*583 ANTENNA_output81_A
*584 ANTENNA_output82_A
*585 ANTENNA_output83_A
*586 ANTENNA_output84_A
*587 ANTENNA_output86_A
*588 ANTENNA_output87_A
*589 ANTENNA_output88_A
*590 ANTENNA_output89_A
*591 ANTENNA_output90_A
*592 ANTENNA_output91_A
*593 ANTENNA_output92_A
*594 ANTENNA_output93_A
*595 ANTENNA_output94_A
*596 ANTENNA_output95_A
*597 ANTENNA_output96_A
*598 ANTENNA_output97_A
*599 ANTENNA_output98_A
*600 ANTENNA_output99_A
*601 FILLER_0_10
*602 FILLER_0_101
*603 FILLER_0_108
*604 FILLER_0_115
*605 FILLER_0_122
*606 FILLER_0_129
*607 FILLER_0_136
*608 FILLER_0_141
*609 FILLER_0_145
*610 FILLER_0_149
*611 FILLER_0_156
*612 FILLER_0_164
*613 FILLER_0_169
*614 FILLER_0_176
*615 FILLER_0_184
*616 FILLER_0_192
*617 FILLER_0_197
*618 FILLER_0_200
*619 FILLER_0_208
*620 FILLER_0_216
*621 FILLER_0_229
*622 FILLER_0_237
*623 FILLER_0_24
*624 FILLER_0_245
*625 FILLER_0_251
*626 FILLER_0_257
*627 FILLER_0_265
*628 FILLER_0_273
*629 FILLER_0_279
*630 FILLER_0_285
*631 FILLER_0_293
*632 FILLER_0_3
*633 FILLER_0_300
*634 FILLER_0_312
*635 FILLER_0_319
*636 FILLER_0_326
*637 FILLER_0_33
*638 FILLER_0_332
*639 FILLER_0_340
*640 FILLER_0_347
*641 FILLER_0_354
*642 FILLER_0_360
*643 FILLER_0_368
*644 FILLER_0_375
*645 FILLER_0_382
*646 FILLER_0_388
*647 FILLER_0_403
*648 FILLER_0_41
*649 FILLER_0_45
*650 FILLER_0_52
*651 FILLER_0_59
*652 FILLER_0_66
*653 FILLER_0_7
*654 FILLER_0_73
*655 FILLER_0_80
*656 FILLER_0_87
*657 FILLER_0_94
*658 FILLER_10_102
*659 FILLER_10_111
*660 FILLER_10_118
*661 FILLER_10_130
*662 FILLER_10_138
*663 FILLER_10_149
*664 FILLER_10_15
*665 FILLER_10_161
*666 FILLER_10_167
*667 FILLER_10_178
*668 FILLER_10_185
*669 FILLER_10_193
*670 FILLER_10_197
*671 FILLER_10_209
*672 FILLER_10_221
*673 FILLER_10_233
*674 FILLER_10_24
*675 FILLER_10_245
*676 FILLER_10_251
*677 FILLER_10_253
*678 FILLER_10_265
*679 FILLER_10_277
*680 FILLER_10_289
*681 FILLER_10_3
*682 FILLER_10_301
*683 FILLER_10_307
*684 FILLER_10_309
*685 FILLER_10_321
*686 FILLER_10_333
*687 FILLER_10_345
*688 FILLER_10_357
*689 FILLER_10_363
*690 FILLER_10_365
*691 FILLER_10_37
*692 FILLER_10_377
*693 FILLER_10_389
*694 FILLER_10_401
*695 FILLER_10_48
*696 FILLER_10_57
*697 FILLER_10_64
*698 FILLER_10_71
*699 FILLER_10_83
*700 FILLER_10_85
*701 FILLER_10_89
*702 FILLER_10_92
*703 FILLER_11_108
*704 FILLER_11_11
*705 FILLER_11_120
*706 FILLER_11_126
*707 FILLER_11_138
*708 FILLER_11_150
*709 FILLER_11_156
*710 FILLER_11_160
*711 FILLER_11_169
*712 FILLER_11_192
*713 FILLER_11_204
*714 FILLER_11_216
*715 FILLER_11_22
*716 FILLER_11_225
*717 FILLER_11_237
*718 FILLER_11_249
*719 FILLER_11_261
*720 FILLER_11_273
*721 FILLER_11_279
*722 FILLER_11_281
*723 FILLER_11_293
*724 FILLER_11_3
*725 FILLER_11_305
*726 FILLER_11_317
*727 FILLER_11_329
*728 FILLER_11_335
*729 FILLER_11_337
*730 FILLER_11_349
*731 FILLER_11_35
*732 FILLER_11_361
*733 FILLER_11_373
*734 FILLER_11_385
*735 FILLER_11_391
*736 FILLER_11_393
*737 FILLER_11_405
*738 FILLER_11_47
*739 FILLER_11_55
*740 FILLER_11_57
*741 FILLER_11_66
*742 FILLER_11_72
*743 FILLER_11_81
*744 FILLER_11_91
*745 FILLER_11_99
*746 FILLER_12_102
*747 FILLER_12_11
*748 FILLER_12_110
*749 FILLER_12_115
*750 FILLER_12_127
*751 FILLER_12_139
*752 FILLER_12_141
*753 FILLER_12_153
*754 FILLER_12_165
*755 FILLER_12_17
*756 FILLER_12_177
*757 FILLER_12_189
*758 FILLER_12_195
*759 FILLER_12_197
*760 FILLER_12_200
*761 FILLER_12_212
*762 FILLER_12_224
*763 FILLER_12_236
*764 FILLER_12_24
*765 FILLER_12_248
*766 FILLER_12_253
*767 FILLER_12_265
*768 FILLER_12_277
*769 FILLER_12_289
*770 FILLER_12_3
*771 FILLER_12_301
*772 FILLER_12_307
*773 FILLER_12_309
*774 FILLER_12_321
*775 FILLER_12_333
*776 FILLER_12_345
*777 FILLER_12_35
*778 FILLER_12_357
*779 FILLER_12_363
*780 FILLER_12_365
*781 FILLER_12_377
*782 FILLER_12_389
*783 FILLER_12_401
*784 FILLER_12_45
*785 FILLER_12_58
*786 FILLER_12_70
*787 FILLER_12_82
*788 FILLER_12_85
*789 FILLER_12_93
*790 FILLER_13_104
*791 FILLER_13_108
*792 FILLER_13_113
*793 FILLER_13_125
*794 FILLER_13_137
*795 FILLER_13_15
*796 FILLER_13_160
*797 FILLER_13_169
*798 FILLER_13_181
*799 FILLER_13_186
*800 FILLER_13_192
*801 FILLER_13_205
*802 FILLER_13_21
*803 FILLER_13_213
*804 FILLER_13_221
*805 FILLER_13_225
*806 FILLER_13_237
*807 FILLER_13_249
*808 FILLER_13_261
*809 FILLER_13_273
*810 FILLER_13_279
*811 FILLER_13_281
*812 FILLER_13_293
*813 FILLER_13_3
*814 FILLER_13_305
*815 FILLER_13_317
*816 FILLER_13_329
*817 FILLER_13_33
*818 FILLER_13_335
*819 FILLER_13_337
*820 FILLER_13_349
*821 FILLER_13_361
*822 FILLER_13_373
*823 FILLER_13_385
*824 FILLER_13_391
*825 FILLER_13_393
*826 FILLER_13_405
*827 FILLER_13_45
*828 FILLER_13_53
*829 FILLER_13_57
*830 FILLER_13_69
*831 FILLER_13_81
*832 FILLER_13_86
*833 FILLER_13_98
*834 FILLER_14_121
*835 FILLER_14_133
*836 FILLER_14_139
*837 FILLER_14_141
*838 FILLER_14_160
*839 FILLER_14_172
*840 FILLER_14_180
*841 FILLER_14_185
*842 FILLER_14_192
*843 FILLER_14_197
*844 FILLER_14_209
*845 FILLER_14_222
*846 FILLER_14_234
*847 FILLER_14_24
*848 FILLER_14_246
*849 FILLER_14_253
*850 FILLER_14_265
*851 FILLER_14_277
*852 FILLER_14_289
*853 FILLER_14_29
*854 FILLER_14_3
*855 FILLER_14_301
*856 FILLER_14_307
*857 FILLER_14_309
*858 FILLER_14_321
*859 FILLER_14_333
*860 FILLER_14_345
*861 FILLER_14_357
*862 FILLER_14_363
*863 FILLER_14_365
*864 FILLER_14_377
*865 FILLER_14_389
*866 FILLER_14_401
*867 FILLER_14_41
*868 FILLER_14_53
*869 FILLER_14_65
*870 FILLER_14_7
*871 FILLER_14_77
*872 FILLER_14_83
*873 FILLER_14_85
*874 FILLER_14_97
*875 FILLER_15_105
*876 FILLER_15_111
*877 FILLER_15_113
*878 FILLER_15_125
*879 FILLER_15_137
*880 FILLER_15_15
*881 FILLER_15_160
*882 FILLER_15_169
*883 FILLER_15_177
*884 FILLER_15_181
*885 FILLER_15_188
*886 FILLER_15_201
*887 FILLER_15_214
*888 FILLER_15_222
*889 FILLER_15_225
*890 FILLER_15_237
*891 FILLER_15_249
*892 FILLER_15_261
*893 FILLER_15_273
*894 FILLER_15_279
*895 FILLER_15_281
*896 FILLER_15_293
*897 FILLER_15_3
*898 FILLER_15_305
*899 FILLER_15_317
*900 FILLER_15_329
*901 FILLER_15_335
*902 FILLER_15_337
*903 FILLER_15_349
*904 FILLER_15_36
*905 FILLER_15_361
*906 FILLER_15_373
*907 FILLER_15_385
*908 FILLER_15_391
*909 FILLER_15_393
*910 FILLER_15_405
*911 FILLER_15_48
*912 FILLER_15_57
*913 FILLER_15_69
*914 FILLER_15_81
*915 FILLER_16_113
*916 FILLER_16_125
*917 FILLER_16_137
*918 FILLER_16_141
*919 FILLER_16_160
*920 FILLER_16_181
*921 FILLER_16_192
*922 FILLER_16_206
*923 FILLER_16_212
*924 FILLER_16_224
*925 FILLER_16_236
*926 FILLER_16_24
*927 FILLER_16_248
*928 FILLER_16_253
*929 FILLER_16_265
*930 FILLER_16_277
*931 FILLER_16_289
*932 FILLER_16_29
*933 FILLER_16_3
*934 FILLER_16_301
*935 FILLER_16_307
*936 FILLER_16_309
*937 FILLER_16_321
*938 FILLER_16_333
*939 FILLER_16_345
*940 FILLER_16_357
*941 FILLER_16_363
*942 FILLER_16_365
*943 FILLER_16_377
*944 FILLER_16_389
*945 FILLER_16_401
*946 FILLER_16_41
*947 FILLER_16_60
*948 FILLER_16_7
*949 FILLER_16_80
*950 FILLER_16_85
*951 FILLER_17_108
*952 FILLER_17_113
*953 FILLER_17_125
*954 FILLER_17_137
*955 FILLER_17_15
*956 FILLER_17_160
*957 FILLER_17_169
*958 FILLER_17_181
*959 FILLER_17_185
*960 FILLER_17_188
*961 FILLER_17_195
*962 FILLER_17_205
*963 FILLER_17_218
*964 FILLER_17_225
*965 FILLER_17_237
*966 FILLER_17_249
*967 FILLER_17_261
*968 FILLER_17_273
*969 FILLER_17_279
*970 FILLER_17_281
*971 FILLER_17_293
*972 FILLER_17_3
*973 FILLER_17_305
*974 FILLER_17_317
*975 FILLER_17_329
*976 FILLER_17_335
*977 FILLER_17_337
*978 FILLER_17_349
*979 FILLER_17_35
*980 FILLER_17_361
*981 FILLER_17_373
*982 FILLER_17_385
*983 FILLER_17_391
*984 FILLER_17_393
*985 FILLER_17_405
*986 FILLER_17_47
*987 FILLER_17_55
*988 FILLER_17_74
*989 FILLER_17_86
*990 FILLER_17_90
*991 FILLER_18_113
*992 FILLER_18_125
*993 FILLER_18_137
*994 FILLER_18_141
*995 FILLER_18_160
*996 FILLER_18_172
*997 FILLER_18_184
*998 FILLER_18_197
*999 FILLER_18_204
*1000 FILLER_18_208
*1001 FILLER_18_215
*1002 FILLER_18_227
*1003 FILLER_18_239
*1004 FILLER_18_24
*1005 FILLER_18_251
*1006 FILLER_18_253
*1007 FILLER_18_265
*1008 FILLER_18_277
*1009 FILLER_18_289
*1010 FILLER_18_29
*1011 FILLER_18_3
*1012 FILLER_18_301
*1013 FILLER_18_307
*1014 FILLER_18_309
*1015 FILLER_18_321
*1016 FILLER_18_333
*1017 FILLER_18_345
*1018 FILLER_18_357
*1019 FILLER_18_363
*1020 FILLER_18_365
*1021 FILLER_18_377
*1022 FILLER_18_389
*1023 FILLER_18_401
*1024 FILLER_18_41
*1025 FILLER_18_53
*1026 FILLER_18_7
*1027 FILLER_18_72
*1028 FILLER_18_85
*1029 FILLER_19_101
*1030 FILLER_19_109
*1031 FILLER_19_11
*1032 FILLER_19_113
*1033 FILLER_19_125
*1034 FILLER_19_137
*1035 FILLER_19_143
*1036 FILLER_19_160
*1037 FILLER_19_169
*1038 FILLER_19_181
*1039 FILLER_19_193
*1040 FILLER_19_205
*1041 FILLER_19_217
*1042 FILLER_19_223
*1043 FILLER_19_225
*1044 FILLER_19_237
*1045 FILLER_19_249
*1046 FILLER_19_261
*1047 FILLER_19_273
*1048 FILLER_19_279
*1049 FILLER_19_281
*1050 FILLER_19_293
*1051 FILLER_19_3
*1052 FILLER_19_30
*1053 FILLER_19_305
*1054 FILLER_19_317
*1055 FILLER_19_329
*1056 FILLER_19_335
*1057 FILLER_19_337
*1058 FILLER_19_349
*1059 FILLER_19_361
*1060 FILLER_19_373
*1061 FILLER_19_385
*1062 FILLER_19_391
*1063 FILLER_19_393
*1064 FILLER_19_405
*1065 FILLER_19_42
*1066 FILLER_19_54
*1067 FILLER_19_57
*1068 FILLER_19_81
*1069 FILLER_1_106
*1070 FILLER_1_11
*1071 FILLER_1_113
*1072 FILLER_1_119
*1073 FILLER_1_127
*1074 FILLER_1_130
*1075 FILLER_1_137
*1076 FILLER_1_141
*1077 FILLER_1_145
*1078 FILLER_1_154
*1079 FILLER_1_16
*1080 FILLER_1_160
*1081 FILLER_1_164
*1082 FILLER_1_172
*1083 FILLER_1_182
*1084 FILLER_1_193
*1085 FILLER_1_204
*1086 FILLER_1_212
*1087 FILLER_1_218
*1088 FILLER_1_232
*1089 FILLER_1_24
*1090 FILLER_1_243
*1091 FILLER_1_254
*1092 FILLER_1_262
*1093 FILLER_1_270
*1094 FILLER_1_276
*1095 FILLER_1_285
*1096 FILLER_1_292
*1097 FILLER_1_299
*1098 FILLER_1_3
*1099 FILLER_1_305
*1100 FILLER_1_311
*1101 FILLER_1_319
*1102 FILLER_1_323
*1103 FILLER_1_33
*1104 FILLER_1_330
*1105 FILLER_1_339
*1106 FILLER_1_345
*1107 FILLER_1_349
*1108 FILLER_1_353
*1109 FILLER_1_361
*1110 FILLER_1_365
*1111 FILLER_1_371
*1112 FILLER_1_379
*1113 FILLER_1_383
*1114 FILLER_1_391
*1115 FILLER_1_397
*1116 FILLER_1_40
*1117 FILLER_1_403
*1118 FILLER_1_47
*1119 FILLER_1_55
*1120 FILLER_1_57
*1121 FILLER_1_61
*1122 FILLER_1_65
*1123 FILLER_1_73
*1124 FILLER_1_76
*1125 FILLER_1_83
*1126 FILLER_1_91
*1127 FILLER_1_95
*1128 FILLER_20_121
*1129 FILLER_20_133
*1130 FILLER_20_139
*1131 FILLER_20_141
*1132 FILLER_20_15
*1133 FILLER_20_153
*1134 FILLER_20_165
*1135 FILLER_20_177
*1136 FILLER_20_189
*1137 FILLER_20_195
*1138 FILLER_20_197
*1139 FILLER_20_208
*1140 FILLER_20_214
*1141 FILLER_20_220
*1142 FILLER_20_232
*1143 FILLER_20_244
*1144 FILLER_20_253
*1145 FILLER_20_265
*1146 FILLER_20_27
*1147 FILLER_20_277
*1148 FILLER_20_289
*1149 FILLER_20_29
*1150 FILLER_20_3
*1151 FILLER_20_301
*1152 FILLER_20_307
*1153 FILLER_20_309
*1154 FILLER_20_321
*1155 FILLER_20_333
*1156 FILLER_20_345
*1157 FILLER_20_357
*1158 FILLER_20_363
*1159 FILLER_20_365
*1160 FILLER_20_377
*1161 FILLER_20_389
*1162 FILLER_20_401
*1163 FILLER_20_41
*1164 FILLER_20_65
*1165 FILLER_20_77
*1166 FILLER_20_83
*1167 FILLER_20_85
*1168 FILLER_20_97
*1169 FILLER_21_107
*1170 FILLER_21_11
*1171 FILLER_21_111
*1172 FILLER_21_113
*1173 FILLER_21_125
*1174 FILLER_21_137
*1175 FILLER_21_143
*1176 FILLER_21_160
*1177 FILLER_21_169
*1178 FILLER_21_181
*1179 FILLER_21_193
*1180 FILLER_21_198
*1181 FILLER_21_205
*1182 FILLER_21_220
*1183 FILLER_21_227
*1184 FILLER_21_239
*1185 FILLER_21_251
*1186 FILLER_21_263
*1187 FILLER_21_275
*1188 FILLER_21_279
*1189 FILLER_21_281
*1190 FILLER_21_293
*1191 FILLER_21_3
*1192 FILLER_21_30
*1193 FILLER_21_305
*1194 FILLER_21_317
*1195 FILLER_21_329
*1196 FILLER_21_335
*1197 FILLER_21_337
*1198 FILLER_21_349
*1199 FILLER_21_361
*1200 FILLER_21_373
*1201 FILLER_21_385
*1202 FILLER_21_391
*1203 FILLER_21_393
*1204 FILLER_21_405
*1205 FILLER_21_42
*1206 FILLER_21_54
*1207 FILLER_21_57
*1208 FILLER_21_69
*1209 FILLER_21_83
*1210 FILLER_22_102
*1211 FILLER_22_114
*1212 FILLER_22_126
*1213 FILLER_22_138
*1214 FILLER_22_15
*1215 FILLER_22_157
*1216 FILLER_22_169
*1217 FILLER_22_181
*1218 FILLER_22_192
*1219 FILLER_22_200
*1220 FILLER_22_207
*1221 FILLER_22_220
*1222 FILLER_22_233
*1223 FILLER_22_245
*1224 FILLER_22_251
*1225 FILLER_22_253
*1226 FILLER_22_265
*1227 FILLER_22_27
*1228 FILLER_22_277
*1229 FILLER_22_289
*1230 FILLER_22_29
*1231 FILLER_22_3
*1232 FILLER_22_301
*1233 FILLER_22_307
*1234 FILLER_22_309
*1235 FILLER_22_321
*1236 FILLER_22_333
*1237 FILLER_22_345
*1238 FILLER_22_35
*1239 FILLER_22_357
*1240 FILLER_22_363
*1241 FILLER_22_365
*1242 FILLER_22_377
*1243 FILLER_22_389
*1244 FILLER_22_39
*1245 FILLER_22_401
*1246 FILLER_22_63
*1247 FILLER_22_75
*1248 FILLER_22_83
*1249 FILLER_22_85
*1250 FILLER_23_105
*1251 FILLER_23_111
*1252 FILLER_23_113
*1253 FILLER_23_121
*1254 FILLER_23_140
*1255 FILLER_23_160
*1256 FILLER_23_169
*1257 FILLER_23_177
*1258 FILLER_23_180
*1259 FILLER_23_187
*1260 FILLER_23_194
*1261 FILLER_23_207
*1262 FILLER_23_220
*1263 FILLER_23_234
*1264 FILLER_23_240
*1265 FILLER_23_252
*1266 FILLER_23_264
*1267 FILLER_23_276
*1268 FILLER_23_281
*1269 FILLER_23_293
*1270 FILLER_23_3
*1271 FILLER_23_305
*1272 FILLER_23_31
*1273 FILLER_23_317
*1274 FILLER_23_329
*1275 FILLER_23_335
*1276 FILLER_23_337
*1277 FILLER_23_349
*1278 FILLER_23_361
*1279 FILLER_23_373
*1280 FILLER_23_385
*1281 FILLER_23_391
*1282 FILLER_23_393
*1283 FILLER_23_405
*1284 FILLER_23_43
*1285 FILLER_23_55
*1286 FILLER_23_73
*1287 FILLER_23_85
*1288 FILLER_24_105
*1289 FILLER_24_117
*1290 FILLER_24_136
*1291 FILLER_24_141
*1292 FILLER_24_159
*1293 FILLER_24_179
*1294 FILLER_24_187
*1295 FILLER_24_192
*1296 FILLER_24_197
*1297 FILLER_24_207
*1298 FILLER_24_220
*1299 FILLER_24_226
*1300 FILLER_24_232
*1301 FILLER_24_24
*1302 FILLER_24_244
*1303 FILLER_24_253
*1304 FILLER_24_265
*1305 FILLER_24_277
*1306 FILLER_24_289
*1307 FILLER_24_3
*1308 FILLER_24_301
*1309 FILLER_24_307
*1310 FILLER_24_309
*1311 FILLER_24_321
*1312 FILLER_24_333
*1313 FILLER_24_345
*1314 FILLER_24_357
*1315 FILLER_24_363
*1316 FILLER_24_365
*1317 FILLER_24_377
*1318 FILLER_24_389
*1319 FILLER_24_401
*1320 FILLER_24_45
*1321 FILLER_24_53
*1322 FILLER_24_7
*1323 FILLER_24_71
*1324 FILLER_24_83
*1325 FILLER_24_85
*1326 FILLER_25_104
*1327 FILLER_25_11
*1328 FILLER_25_113
*1329 FILLER_25_121
*1330 FILLER_25_140
*1331 FILLER_25_160
*1332 FILLER_25_169
*1333 FILLER_25_181
*1334 FILLER_25_193
*1335 FILLER_25_200
*1336 FILLER_25_215
*1337 FILLER_25_223
*1338 FILLER_25_225
*1339 FILLER_25_237
*1340 FILLER_25_249
*1341 FILLER_25_261
*1342 FILLER_25_273
*1343 FILLER_25_279
*1344 FILLER_25_281
*1345 FILLER_25_293
*1346 FILLER_25_3
*1347 FILLER_25_30
*1348 FILLER_25_305
*1349 FILLER_25_317
*1350 FILLER_25_329
*1351 FILLER_25_335
*1352 FILLER_25_337
*1353 FILLER_25_349
*1354 FILLER_25_361
*1355 FILLER_25_373
*1356 FILLER_25_385
*1357 FILLER_25_391
*1358 FILLER_25_393
*1359 FILLER_25_405
*1360 FILLER_25_42
*1361 FILLER_25_54
*1362 FILLER_25_73
*1363 FILLER_25_85
*1364 FILLER_26_101
*1365 FILLER_26_113
*1366 FILLER_26_119
*1367 FILLER_26_136
*1368 FILLER_26_141
*1369 FILLER_26_15
*1370 FILLER_26_160
*1371 FILLER_26_172
*1372 FILLER_26_184
*1373 FILLER_26_197
*1374 FILLER_26_203
*1375 FILLER_26_206
*1376 FILLER_26_218
*1377 FILLER_26_230
*1378 FILLER_26_242
*1379 FILLER_26_250
*1380 FILLER_26_253
*1381 FILLER_26_265
*1382 FILLER_26_27
*1383 FILLER_26_277
*1384 FILLER_26_289
*1385 FILLER_26_29
*1386 FILLER_26_3
*1387 FILLER_26_301
*1388 FILLER_26_307
*1389 FILLER_26_309
*1390 FILLER_26_321
*1391 FILLER_26_333
*1392 FILLER_26_345
*1393 FILLER_26_357
*1394 FILLER_26_363
*1395 FILLER_26_365
*1396 FILLER_26_377
*1397 FILLER_26_389
*1398 FILLER_26_401
*1399 FILLER_26_41
*1400 FILLER_26_47
*1401 FILLER_26_51
*1402 FILLER_26_63
*1403 FILLER_26_75
*1404 FILLER_26_83
*1405 FILLER_27_105
*1406 FILLER_27_111
*1407 FILLER_27_113
*1408 FILLER_27_125
*1409 FILLER_27_137
*1410 FILLER_27_15
*1411 FILLER_27_159
*1412 FILLER_27_167
*1413 FILLER_27_169
*1414 FILLER_27_181
*1415 FILLER_27_193
*1416 FILLER_27_205
*1417 FILLER_27_217
*1418 FILLER_27_223
*1419 FILLER_27_225
*1420 FILLER_27_237
*1421 FILLER_27_249
*1422 FILLER_27_261
*1423 FILLER_27_27
*1424 FILLER_27_273
*1425 FILLER_27_279
*1426 FILLER_27_281
*1427 FILLER_27_293
*1428 FILLER_27_3
*1429 FILLER_27_30
*1430 FILLER_27_305
*1431 FILLER_27_317
*1432 FILLER_27_329
*1433 FILLER_27_335
*1434 FILLER_27_337
*1435 FILLER_27_349
*1436 FILLER_27_361
*1437 FILLER_27_373
*1438 FILLER_27_385
*1439 FILLER_27_391
*1440 FILLER_27_393
*1441 FILLER_27_405
*1442 FILLER_27_42
*1443 FILLER_27_54
*1444 FILLER_27_57
*1445 FILLER_27_69
*1446 FILLER_27_81
*1447 FILLER_27_93
*1448 FILLER_28_109
*1449 FILLER_28_121
*1450 FILLER_28_133
*1451 FILLER_28_139
*1452 FILLER_28_141
*1453 FILLER_28_15
*1454 FILLER_28_153
*1455 FILLER_28_165
*1456 FILLER_28_177
*1457 FILLER_28_189
*1458 FILLER_28_195
*1459 FILLER_28_197
*1460 FILLER_28_209
*1461 FILLER_28_21
*1462 FILLER_28_221
*1463 FILLER_28_233
*1464 FILLER_28_245
*1465 FILLER_28_251
*1466 FILLER_28_253
*1467 FILLER_28_265
*1468 FILLER_28_27
*1469 FILLER_28_277
*1470 FILLER_28_289
*1471 FILLER_28_29
*1472 FILLER_28_3
*1473 FILLER_28_301
*1474 FILLER_28_307
*1475 FILLER_28_309
*1476 FILLER_28_321
*1477 FILLER_28_333
*1478 FILLER_28_345
*1479 FILLER_28_357
*1480 FILLER_28_36
*1481 FILLER_28_363
*1482 FILLER_28_365
*1483 FILLER_28_377
*1484 FILLER_28_389
*1485 FILLER_28_401
*1486 FILLER_28_42
*1487 FILLER_28_54
*1488 FILLER_28_58
*1489 FILLER_28_62
*1490 FILLER_28_74
*1491 FILLER_28_78
*1492 FILLER_28_85
*1493 FILLER_28_97
*1494 FILLER_29_105
*1495 FILLER_29_108
*1496 FILLER_29_113
*1497 FILLER_29_117
*1498 FILLER_29_123
*1499 FILLER_29_135
*1500 FILLER_29_147
*1501 FILLER_29_15
*1502 FILLER_29_159
*1503 FILLER_29_167
*1504 FILLER_29_171
*1505 FILLER_29_183
*1506 FILLER_29_19
*1507 FILLER_29_195
*1508 FILLER_29_207
*1509 FILLER_29_219
*1510 FILLER_29_223
*1511 FILLER_29_225
*1512 FILLER_29_237
*1513 FILLER_29_249
*1514 FILLER_29_26
*1515 FILLER_29_261
*1516 FILLER_29_273
*1517 FILLER_29_279
*1518 FILLER_29_281
*1519 FILLER_29_293
*1520 FILLER_29_3
*1521 FILLER_29_305
*1522 FILLER_29_317
*1523 FILLER_29_329
*1524 FILLER_29_335
*1525 FILLER_29_337
*1526 FILLER_29_349
*1527 FILLER_29_361
*1528 FILLER_29_373
*1529 FILLER_29_385
*1530 FILLER_29_39
*1531 FILLER_29_391
*1532 FILLER_29_393
*1533 FILLER_29_405
*1534 FILLER_29_43
*1535 FILLER_29_46
*1536 FILLER_29_54
*1537 FILLER_29_57
*1538 FILLER_29_63
*1539 FILLER_29_70
*1540 FILLER_29_80
*1541 FILLER_29_86
*1542 FILLER_29_94
*1543 FILLER_29_99
*1544 FILLER_2_114
*1545 FILLER_2_120
*1546 FILLER_2_128
*1547 FILLER_2_134
*1548 FILLER_2_141
*1549 FILLER_2_145
*1550 FILLER_2_148
*1551 FILLER_2_15
*1552 FILLER_2_158
*1553 FILLER_2_162
*1554 FILLER_2_169
*1555 FILLER_2_173
*1556 FILLER_2_181
*1557 FILLER_2_192
*1558 FILLER_2_199
*1559 FILLER_2_212
*1560 FILLER_2_218
*1561 FILLER_2_229
*1562 FILLER_2_240
*1563 FILLER_2_246
*1564 FILLER_2_260
*1565 FILLER_2_266
*1566 FILLER_2_27
*1567 FILLER_2_272
*1568 FILLER_2_278
*1569 FILLER_2_284
*1570 FILLER_2_29
*1571 FILLER_2_290
*1572 FILLER_2_296
*1573 FILLER_2_3
*1574 FILLER_2_302
*1575 FILLER_2_311
*1576 FILLER_2_317
*1577 FILLER_2_32
*1578 FILLER_2_320
*1579 FILLER_2_324
*1580 FILLER_2_327
*1581 FILLER_2_339
*1582 FILLER_2_347
*1583 FILLER_2_350
*1584 FILLER_2_356
*1585 FILLER_2_367
*1586 FILLER_2_371
*1587 FILLER_2_374
*1588 FILLER_2_38
*1589 FILLER_2_380
*1590 FILLER_2_389
*1591 FILLER_2_395
*1592 FILLER_2_403
*1593 FILLER_2_44
*1594 FILLER_2_50
*1595 FILLER_2_56
*1596 FILLER_2_62
*1597 FILLER_2_68
*1598 FILLER_2_74
*1599 FILLER_2_80
*1600 FILLER_2_85
*1601 FILLER_2_89
*1602 FILLER_2_92
*1603 FILLER_2_96
*1604 FILLER_30_103
*1605 FILLER_30_110
*1606 FILLER_30_117
*1607 FILLER_30_125
*1608 FILLER_30_128
*1609 FILLER_30_141
*1610 FILLER_30_15
*1611 FILLER_30_153
*1612 FILLER_30_157
*1613 FILLER_30_161
*1614 FILLER_30_171
*1615 FILLER_30_177
*1616 FILLER_30_189
*1617 FILLER_30_195
*1618 FILLER_30_197
*1619 FILLER_30_209
*1620 FILLER_30_21
*1621 FILLER_30_221
*1622 FILLER_30_233
*1623 FILLER_30_24
*1624 FILLER_30_245
*1625 FILLER_30_251
*1626 FILLER_30_253
*1627 FILLER_30_265
*1628 FILLER_30_277
*1629 FILLER_30_289
*1630 FILLER_30_29
*1631 FILLER_30_3
*1632 FILLER_30_301
*1633 FILLER_30_307
*1634 FILLER_30_309
*1635 FILLER_30_321
*1636 FILLER_30_333
*1637 FILLER_30_345
*1638 FILLER_30_357
*1639 FILLER_30_363
*1640 FILLER_30_365
*1641 FILLER_30_377
*1642 FILLER_30_389
*1643 FILLER_30_401
*1644 FILLER_30_42
*1645 FILLER_30_55
*1646 FILLER_30_61
*1647 FILLER_30_76
*1648 FILLER_30_85
*1649 FILLER_30_89
*1650 FILLER_30_96
*1651 FILLER_31_108
*1652 FILLER_31_113
*1653 FILLER_31_126
*1654 FILLER_31_130
*1655 FILLER_31_133
*1656 FILLER_31_139
*1657 FILLER_31_15
*1658 FILLER_31_151