*SPEF "ieee 1481-1999"
*DESIGN "wishbone_arbiter"
*DATE "11:11:11 Fri 11 11, 1111"
*VENDOR "OpenRCX"
*PROGRAM "Parallel Extraction"
*VERSION "1.0"
*DESIGN_FLOW "NAME_SCOPE LOCAL" "PIN_CAP NONE"
*DIVIDER /
*DELIMITER :
*BUS_DELIMITER []
*T_UNIT 1 NS
*C_UNIT 1 PF
*R_UNIT 1 OHM
*L_UNIT 1 HENRY

*NAME_MAP
*1 i_clk
*2 i_rst
*3 i_wb0_cyc
*4 i_wb1_cyc
*5 o_sel_sig
*6 o_wb_cyc
*7 owb_4_burst
*8 owb_8_burst
*9 owb_ack
*10 owb_adr[0]
*11 owb_adr[10]
*12 owb_adr[11]
*13 owb_adr[12]
*14 owb_adr[13]
*15 owb_adr[14]
*16 owb_adr[15]
*17 owb_adr[16]
*18 owb_adr[17]
*19 owb_adr[18]
*20 owb_adr[19]
*21 owb_adr[1]
*22 owb_adr[20]
*23 owb_adr[21]
*24 owb_adr[22]
*25 owb_adr[23]
*26 owb_adr[2]
*27 owb_adr[3]
*28 owb_adr[4]
*29 owb_adr[5]
*30 owb_adr[6]
*31 owb_adr[7]
*32 owb_adr[8]
*33 owb_adr[9]
*34 owb_err
*35 owb_o_dat[0]
*36 owb_o_dat[10]
*37 owb_o_dat[11]
*38 owb_o_dat[12]
*39 owb_o_dat[13]
*40 owb_o_dat[14]
*41 owb_o_dat[15]
*42 owb_o_dat[1]
*43 owb_o_dat[2]
*44 owb_o_dat[3]
*45 owb_o_dat[4]
*46 owb_o_dat[5]
*47 owb_o_dat[6]
*48 owb_o_dat[7]
*49 owb_o_dat[8]
*50 owb_o_dat[9]
*51 owb_sel[0]
*52 owb_sel[1]
*53 owb_stb
*54 owb_we
*57 wb0_4_burst
*58 wb0_8_burst
*59 wb0_ack
*60 wb0_adr[0]
*61 wb0_adr[10]
*62 wb0_adr[11]
*63 wb0_adr[12]
*64 wb0_adr[13]
*65 wb0_adr[14]
*66 wb0_adr[15]
*67 wb0_adr[16]
*68 wb0_adr[17]
*69 wb0_adr[18]
*70 wb0_adr[19]
*71 wb0_adr[1]
*72 wb0_adr[20]
*73 wb0_adr[21]
*74 wb0_adr[22]
*75 wb0_adr[23]
*76 wb0_adr[2]
*77 wb0_adr[3]
*78 wb0_adr[4]
*79 wb0_adr[5]
*80 wb0_adr[6]
*81 wb0_adr[7]
*82 wb0_adr[8]
*83 wb0_adr[9]
*84 wb0_err
*85 wb0_o_dat[0]
*86 wb0_o_dat[10]
*87 wb0_o_dat[11]
*88 wb0_o_dat[12]
*89 wb0_o_dat[13]
*90 wb0_o_dat[14]
*91 wb0_o_dat[15]
*92 wb0_o_dat[1]
*93 wb0_o_dat[2]
*94 wb0_o_dat[3]
*95 wb0_o_dat[4]
*96 wb0_o_dat[5]
*97 wb0_o_dat[6]
*98 wb0_o_dat[7]
*99 wb0_o_dat[8]
*100 wb0_o_dat[9]
*101 wb0_sel[0]
*102 wb0_sel[1]
*103 wb0_stb
*104 wb0_we
*105 wb1_4_burst
*106 wb1_8_burst
*107 wb1_ack
*108 wb1_adr[0]
*109 wb1_adr[10]
*110 wb1_adr[11]
*111 wb1_adr[12]
*112 wb1_adr[13]
*113 wb1_adr[14]
*114 wb1_adr[15]
*115 wb1_adr[16]
*116 wb1_adr[17]
*117 wb1_adr[18]
*118 wb1_adr[19]
*119 wb1_adr[1]
*120 wb1_adr[20]
*121 wb1_adr[21]
*122 wb1_adr[22]
*123 wb1_adr[23]
*124 wb1_adr[2]
*125 wb1_adr[3]
*126 wb1_adr[4]
*127 wb1_adr[5]
*128 wb1_adr[6]
*129 wb1_adr[7]
*130 wb1_adr[8]
*131 wb1_adr[9]
*132 wb1_err
*133 wb1_o_dat[0]
*134 wb1_o_dat[10]
*135 wb1_o_dat[11]
*136 wb1_o_dat[12]
*137 wb1_o_dat[13]
*138 wb1_o_dat[14]
*139 wb1_o_dat[15]
*140 wb1_o_dat[1]
*141 wb1_o_dat[2]
*142 wb1_o_dat[3]
*143 wb1_o_dat[4]
*144 wb1_o_dat[5]
*145 wb1_o_dat[6]
*146 wb1_o_dat[7]
*147 wb1_o_dat[8]
*148 wb1_o_dat[9]
*149 wb1_sel[0]
*150 wb1_sel[1]
*151 wb1_stb
*152 wb1_we
*153 _000_
*154 _001_
*155 _002_
*156 _003_
*157 _004_
*158 _005_
*159 _006_
*160 _007_
*161 _008_
*162 _009_
*163 _010_
*164 _011_
*165 _012_
*166 _013_
*167 _014_
*168 _015_
*169 _016_
*170 _017_
*171 _018_
*172 _019_
*173 _020_
*174 _021_
*175 _022_
*176 _023_
*177 _024_
*178 _025_
*179 _026_
*180 _027_
*181 _028_
*182 _029_
*183 _030_
*184 _031_
*185 _032_
*186 _033_
*187 _034_
*188 _035_
*189 _036_
*190 _037_
*191 _038_
*192 _039_
*193 _040_
*194 _041_
*195 _042_
*196 _043_
*197 _044_
*198 _045_
*199 _046_
*200 _047_
*201 _048_
*202 _049_
*203 _050_
*204 _051_
*205 _052_
*206 _053_
*207 _054_
*208 _055_
*209 _056_
*210 _057_
*211 _058_
*212 _059_
*213 net1
*214 net10
*215 net100
*216 net101
*217 net102
*218 net103
*219 net104
*220 net105
*221 net106
*222 net107
*223 net108
*224 net109
*225 net11
*226 net110
*227 net111
*228 net112
*229 net113
*230 net114
*231 net115
*232 net116
*233 net117
*234 net118
*235 net119
*236 net12
*237 net120
*238 net121
*239 net122
*240 net123
*241 net124
*242 net125
*243 net126
*244 net127
*245 net128
*246 net129
*247 net13
*248 net130
*249 net131
*250 net132
*251 net133
*252 net134
*253 net135
*254 net136
*255 net137
*256 net138
*257 net139
*258 net14
*259 net140
*260 net141
*261 net142
*262 net143
*263 net144
*264 net145
*265 net146
*266 net147
*267 net148
*268 net149
*269 net15
*270 net16
*271 net17
*272 net18
*273 net19
*274 net2
*275 net20
*276 net21
*277 net22
*278 net23
*279 net24
*280 net25
*281 net26
*282 net27
*283 net28
*284 net29
*285 net3
*286 net30
*287 net31
*288 net32
*289 net33
*290 net34
*291 net35
*292 net36
*293 net37
*294 net38
*295 net39
*296 net4
*297 net40
*298 net41
*299 net42
*300 net43
*301 net44
*302 net45
*303 net46
*304 net47
*305 net48
*306 net49
*307 net5
*308 net50
*309 net51
*310 net52
*311 net53
*312 net54
*313 net55
*314 net56
*315 net57
*316 net58
*317 net59
*318 net6
*319 net60
*320 net61
*321 net62
*322 net63
*323 net64
*324 net65
*325 net66
*326 net67
*327 net68
*328 net69
*329 net7
*330 net70
*331 net71
*332 net72
*333 net73
*334 net74
*335 net75
*336 net76
*337 net77
*338 net78
*339 net79
*340 net8
*341 net80
*342 net81
*343 net82
*344 net83
*345 net84
*346 net85
*347 net86
*348 net87
*349 net88
*350 net89
*351 net9
*352 net90
*353 net91
*354 net92
*355 net93
*356 net94
*357 net95
*358 net96
*359 net97
*360 net98
*361 net99
*362 ANTENNA__060__A
*363 ANTENNA__061__A0
*364 ANTENNA__061__S
*365 ANTENNA__063__A0
*366 ANTENNA__063__S
*367 ANTENNA__065__A_N
*368 ANTENNA__067__A_N
*369 ANTENNA__067__B
*370 ANTENNA__069__A1
*371 ANTENNA__069__S
*372 ANTENNA__071__A1
*373 ANTENNA__071__S
*374 ANTENNA__073__A
*375 ANTENNA__074__A1
*376 ANTENNA__074__S
*377 ANTENNA__076__A0
*378 ANTENNA__076__S
*379 ANTENNA__078__A0
*380 ANTENNA__078__S
*381 ANTENNA__080__A0
*382 ANTENNA__080__S
*383 ANTENNA__082__A0
*384 ANTENNA__082__S
*385 ANTENNA__084__A0
*386 ANTENNA__084__S
*387 ANTENNA__086__A0
*388 ANTENNA__086__S
*389 ANTENNA__088__A0
*390 ANTENNA__088__S
*391 ANTENNA__090__A0
*392 ANTENNA__090__S
*393 ANTENNA__092__A0
*394 ANTENNA__092__S
*395 ANTENNA__094__A
*396 ANTENNA__095__A0
*397 ANTENNA__097__A0
*398 ANTENNA__099__A0
*399 ANTENNA__101__A0
*400 ANTENNA__103__A0
*401 ANTENNA__105__A0
*402 ANTENNA__107__A0
*403 ANTENNA__109__A0
*404 ANTENNA__111__A0
*405 ANTENNA__113__A0
*406 ANTENNA__115__A
*407 ANTENNA__116__A0
*408 ANTENNA__118__A0
*409 ANTENNA__120__A0
*410 ANTENNA__126__A1
*411 ANTENNA__128__A1
*412 ANTENNA__130__A1
*413 ANTENNA__132__A1
*414 ANTENNA__134__A1
*415 ANTENNA__136__A
*416 ANTENNA__137__A1
*417 ANTENNA__139__A1
*418 ANTENNA__141__A1
*419 ANTENNA__143__A1
*420 ANTENNA__145__A1
*421 ANTENNA__147__A1
*422 ANTENNA__149__A1
*423 ANTENNA__151__A1
*424 ANTENNA__153__A1
*425 ANTENNA__155__A1
*426 ANTENNA__157__A1
*427 ANTENNA__157__S
*428 ANTENNA__159__A1
*429 ANTENNA__159__S
*430 ANTENNA__162__A1
*431 ANTENNA__162__S
*432 ANTENNA__165__A
*433 ANTENNA__167__A
*434 ANTENNA__167__B
*435 ANTENNA__169__A1
*436 ANTENNA__169__A2
*437 ANTENNA__170__A1
*438 ANTENNA__170__A2
*439 ANTENNA__171__CLK
*440 ANTENNA_input10_A
*441 ANTENNA_input11_A
*442 ANTENNA_input12_A
*443 ANTENNA_input13_A
*444 ANTENNA_input14_A
*445 ANTENNA_input15_A
*446 ANTENNA_input16_A
*447 ANTENNA_input17_A
*448 ANTENNA_input18_A
*449 ANTENNA_input19_A
*450 ANTENNA_input1_A
*451 ANTENNA_input20_A
*452 ANTENNA_input21_A
*453 ANTENNA_input22_A
*454 ANTENNA_input23_A
*455 ANTENNA_input24_A
*456 ANTENNA_input25_A
*457 ANTENNA_input26_A
*458 ANTENNA_input27_A
*459 ANTENNA_input28_A
*460 ANTENNA_input29_A
*461 ANTENNA_input2_A
*462 ANTENNA_input30_A
*463 ANTENNA_input31_A
*464 ANTENNA_input32_A
*465 ANTENNA_input33_A
*466 ANTENNA_input34_A
*467 ANTENNA_input35_A
*468 ANTENNA_input36_A
*469 ANTENNA_input37_A
*470 ANTENNA_input38_A
*471 ANTENNA_input39_A
*472 ANTENNA_input3_A
*473 ANTENNA_input40_A
*474 ANTENNA_input41_A
*475 ANTENNA_input42_A
*476 ANTENNA_input43_A
*477 ANTENNA_input44_A
*478 ANTENNA_input45_A
*479 ANTENNA_input46_A
*480 ANTENNA_input47_A
*481 ANTENNA_input48_A
*482 ANTENNA_input49_A
*483 ANTENNA_input4_A
*484 ANTENNA_input50_A
*485 ANTENNA_input51_A
*486 ANTENNA_input52_A
*487 ANTENNA_input53_A
*488 ANTENNA_input54_A
*489 ANTENNA_input55_A
*490 ANTENNA_input56_A
*491 ANTENNA_input57_A
*492 ANTENNA_input58_A
*493 ANTENNA_input59_A
*494 ANTENNA_input5_A
*495 ANTENNA_input60_A
*496 ANTENNA_input61_A
*497 ANTENNA_input62_A
*498 ANTENNA_input63_A
*499 ANTENNA_input64_A
*500 ANTENNA_input65_A
*501 ANTENNA_input66_A
*502 ANTENNA_input67_A
*503 ANTENNA_input68_A
*504 ANTENNA_input69_A
*505 ANTENNA_input6_A
*506 ANTENNA_input70_A
*507 ANTENNA_input71_A
*508 ANTENNA_input72_A
*509 ANTENNA_input73_A
*510 ANTENNA_input74_A
*511 ANTENNA_input75_A
*512 ANTENNA_input76_A
*513 ANTENNA_input77_A
*514 ANTENNA_input78_A
*515 ANTENNA_input79_A
*516 ANTENNA_input7_A
*517 ANTENNA_input80_A
*518 ANTENNA_input81_A
*519 ANTENNA_input82_A
*520 ANTENNA_input83_A
*521 ANTENNA_input84_A
*522 ANTENNA_input85_A
*523 ANTENNA_input86_A
*524 ANTENNA_input87_A
*525 ANTENNA_input88_A
*526 ANTENNA_input89_A
*527 ANTENNA_input8_A
*528 ANTENNA_input90_A
*529 ANTENNA_input91_A
*530 ANTENNA_input92_A
*531 ANTENNA_input93_A
*532 ANTENNA_input94_A
*533 ANTENNA_input95_A
*534 ANTENNA_input96_A
*535 ANTENNA_input97_A
*536 ANTENNA_input9_A
*537 ANTENNA_output100_A
*538 ANTENNA_output101_A
*539 ANTENNA_output102_A
*540 ANTENNA_output103_A
*541 ANTENNA_output104_A
*542 ANTENNA_output105_A
*543 ANTENNA_output106_A
*544 ANTENNA_output107_A
*545 ANTENNA_output108_A
*546 ANTENNA_output109_A
*547 ANTENNA_output110_A
*548 ANTENNA_output111_A
*549 ANTENNA_output112_A
*550 ANTENNA_output113_A
*551 ANTENNA_output118_A
*552 ANTENNA_output119_A
*553 ANTENNA_output120_A
*554 ANTENNA_output121_A
*555 ANTENNA_output122_A
*556 ANTENNA_output123_A
*557 ANTENNA_output124_A
*558 ANTENNA_output125_A
*559 ANTENNA_output146_A
*560 ANTENNA_output149_A
*561 ANTENNA_output98_A
*562 FILLER_0_10
*563 FILLER_0_101
*564 FILLER_0_108
*565 FILLER_0_113
*566 FILLER_0_117
*567 FILLER_0_121
*568 FILLER_0_125
*569 FILLER_0_129
*570 FILLER_0_136
*571 FILLER_0_143
*572 FILLER_0_150
*573 FILLER_0_157
*574 FILLER_0_164
*575 FILLER_0_169
*576 FILLER_0_17
*577 FILLER_0_173
*578 FILLER_0_177
*579 FILLER_0_181
*580 FILLER_0_185
*581 FILLER_0_192
*582 FILLER_0_197
*583 FILLER_0_201
*584 FILLER_0_205
*585 FILLER_0_209
*586 FILLER_0_213
*587 FILLER_0_217
*588 FILLER_0_223
*589 FILLER_0_225
*590 FILLER_0_229
*591 FILLER_0_234
*592 FILLER_0_24
*593 FILLER_0_241
*594 FILLER_0_247
*595 FILLER_0_251
*596 FILLER_0_256
*597 FILLER_0_263
*598 FILLER_0_270
*599 FILLER_0_276
*600 FILLER_0_284
*601 FILLER_0_29
*602 FILLER_0_291
*603 FILLER_0_298
*604 FILLER_0_3
*605 FILLER_0_304
*606 FILLER_0_309
*607 FILLER_0_320
*608 FILLER_0_326
*609 FILLER_0_332
*610 FILLER_0_34
*611 FILLER_0_347
*612 FILLER_0_351
*613 FILLER_0_354
*614 FILLER_0_360
*615 FILLER_0_375
*616 FILLER_0_381
*617 FILLER_0_388
*618 FILLER_0_403
*619 FILLER_0_45
*620 FILLER_0_52
*621 FILLER_0_57
*622 FILLER_0_61
*623 FILLER_0_65
*624 FILLER_0_69
*625 FILLER_0_7
*626 FILLER_0_73
*627 FILLER_0_80
*628 FILLER_0_87
*629 FILLER_0_94
*630 FILLER_10_101
*631 FILLER_10_113
*632 FILLER_10_125
*633 FILLER_10_137
*634 FILLER_10_141
*635 FILLER_10_15
*636 FILLER_10_153
*637 FILLER_10_165
*638 FILLER_10_177
*639 FILLER_10_189
*640 FILLER_10_195
*641 FILLER_10_197
*642 FILLER_10_209
*643 FILLER_10_221
*644 FILLER_10_233
*645 FILLER_10_245
*646 FILLER_10_251
*647 FILLER_10_253
*648 FILLER_10_265
*649 FILLER_10_27
*650 FILLER_10_277
*651 FILLER_10_289
*652 FILLER_10_29
*653 FILLER_10_3
*654 FILLER_10_301
*655 FILLER_10_307
*656 FILLER_10_309
*657 FILLER_10_321
*658 FILLER_10_333
*659 FILLER_10_345
*660 FILLER_10_357
*661 FILLER_10_363
*662 FILLER_10_365
*663 FILLER_10_377
*664 FILLER_10_389
*665 FILLER_10_395
*666 FILLER_10_403
*667 FILLER_10_41
*668 FILLER_10_53
*669 FILLER_10_65
*670 FILLER_10_80
*671 FILLER_10_87
*672 FILLER_11_105
*673 FILLER_11_111
*674 FILLER_11_113
*675 FILLER_11_125
*676 FILLER_11_137
*677 FILLER_11_149
*678 FILLER_11_15
*679 FILLER_11_161
*680 FILLER_11_167
*681 FILLER_11_169
*682 FILLER_11_181
*683 FILLER_11_193
*684 FILLER_11_205
*685 FILLER_11_217
*686 FILLER_11_223
*687 FILLER_11_225
*688 FILLER_11_237
*689 FILLER_11_249
*690 FILLER_11_261
*691 FILLER_11_27
*692 FILLER_11_273
*693 FILLER_11_279
*694 FILLER_11_281
*695 FILLER_11_293
*696 FILLER_11_3
*697 FILLER_11_305
*698 FILLER_11_317
*699 FILLER_11_329
*700 FILLER_11_335
*701 FILLER_11_337
*702 FILLER_11_349
*703 FILLER_11_361
*704 FILLER_11_373
*705 FILLER_11_385
*706 FILLER_11_39
*707 FILLER_11_391
*708 FILLER_11_395
*709 FILLER_11_403
*710 FILLER_11_51
*711 FILLER_11_55
*712 FILLER_11_57
*713 FILLER_11_69
*714 FILLER_11_77
*715 FILLER_11_80
*716 FILLER_11_93
*717 FILLER_11_99
*718 FILLER_12_107
*719 FILLER_12_115
*720 FILLER_12_126
*721 FILLER_12_138
*722 FILLER_12_141
*723 FILLER_12_15
*724 FILLER_12_153
*725 FILLER_12_165
*726 FILLER_12_177
*727 FILLER_12_189
*728 FILLER_12_195
*729 FILLER_12_197
*730 FILLER_12_209
*731 FILLER_12_221
*732 FILLER_12_233
*733 FILLER_12_245
*734 FILLER_12_251
*735 FILLER_12_253
*736 FILLER_12_265
*737 FILLER_12_27
*738 FILLER_12_277
*739 FILLER_12_289
*740 FILLER_12_29
*741 FILLER_12_3
*742 FILLER_12_301
*743 FILLER_12_307
*744 FILLER_12_309
*745 FILLER_12_321
*746 FILLER_12_333
*747 FILLER_12_345
*748 FILLER_12_357
*749 FILLER_12_363
*750 FILLER_12_365
*751 FILLER_12_377
*752 FILLER_12_389
*753 FILLER_12_395
*754 FILLER_12_403
*755 FILLER_12_41
*756 FILLER_12_53
*757 FILLER_12_65
*758 FILLER_12_77
*759 FILLER_12_83
*760 FILLER_12_85
*761 FILLER_12_93
*762 FILLER_13_108
*763 FILLER_13_113
*764 FILLER_13_117
*765 FILLER_13_120
*766 FILLER_13_134
*767 FILLER_13_146
*768 FILLER_13_15
*769 FILLER_13_158
*770 FILLER_13_166
*771 FILLER_13_169
*772 FILLER_13_181
*773 FILLER_13_193
*774 FILLER_13_205
*775 FILLER_13_217
*776 FILLER_13_223
*777 FILLER_13_225
*778 FILLER_13_237
*779 FILLER_13_249
*780 FILLER_13_261
*781 FILLER_13_27
*782 FILLER_13_273
*783 FILLER_13_279
*784 FILLER_13_281
*785 FILLER_13_293
*786 FILLER_13_3
*787 FILLER_13_305
*788 FILLER_13_317
*789 FILLER_13_329
*790 FILLER_13_335
*791 FILLER_13_337
*792 FILLER_13_349
*793 FILLER_13_361
*794 FILLER_13_373
*795 FILLER_13_385
*796 FILLER_13_39
*797 FILLER_13_391
*798 FILLER_13_395
*799 FILLER_13_403
*800 FILLER_13_51
*801 FILLER_13_55
*802 FILLER_13_57
*803 FILLER_13_69
*804 FILLER_13_81
*805 FILLER_13_94
*806 FILLER_14_106
*807 FILLER_14_120
*808 FILLER_14_133
*809 FILLER_14_139
*810 FILLER_14_143
*811 FILLER_14_15
*812 FILLER_14_155
*813 FILLER_14_167
*814 FILLER_14_179
*815 FILLER_14_191
*816 FILLER_14_195
*817 FILLER_14_197
*818 FILLER_14_209
*819 FILLER_14_221
*820 FILLER_14_233
*821 FILLER_14_245
*822 FILLER_14_251
*823 FILLER_14_253
*824 FILLER_14_265
*825 FILLER_14_27
*826 FILLER_14_277
*827 FILLER_14_289
*828 FILLER_14_29
*829 FILLER_14_3
*830 FILLER_14_301
*831 FILLER_14_307
*832 FILLER_14_309
*833 FILLER_14_321
*834 FILLER_14_333
*835 FILLER_14_345
*836 FILLER_14_357
*837 FILLER_14_363
*838 FILLER_14_365
*839 FILLER_14_377
*840 FILLER_14_389
*841 FILLER_14_401
*842 FILLER_14_41
*843 FILLER_14_53
*844 FILLER_14_65
*845 FILLER_14_77
*846 FILLER_14_83
*847 FILLER_14_85
*848 FILLER_14_93
*849 FILLER_15_102
*850 FILLER_15_108
*851 FILLER_15_122
*852 FILLER_15_131
*853 FILLER_15_138
*854 FILLER_15_144
*855 FILLER_15_15
*856 FILLER_15_150
*857 FILLER_15_162
*858 FILLER_15_169
*859 FILLER_15_181
*860 FILLER_15_193
*861 FILLER_15_205
*862 FILLER_15_217
*863 FILLER_15_223
*864 FILLER_15_225
*865 FILLER_15_237
*866 FILLER_15_249
*867 FILLER_15_261
*868 FILLER_15_27
*869 FILLER_15_273
*870 FILLER_15_279
*871 FILLER_15_281
*872 FILLER_15_293
*873 FILLER_15_3
*874 FILLER_15_305
*875 FILLER_15_317
*876 FILLER_15_329
*877 FILLER_15_335
*878 FILLER_15_337
*879 FILLER_15_349
*880 FILLER_15_361
*881 FILLER_15_373
*882 FILLER_15_385
*883 FILLER_15_39
*884 FILLER_15_391
*885 FILLER_15_395
*886 FILLER_15_403
*887 FILLER_15_51
*888 FILLER_15_55
*889 FILLER_15_57
*890 FILLER_15_69
*891 FILLER_15_81
*892 FILLER_15_93
*893 FILLER_15_96
*894 FILLER_16_109
*895 FILLER_16_113
*896 FILLER_16_119
*897 FILLER_16_132
*898 FILLER_16_144
*899 FILLER_16_15
*900 FILLER_16_156
*901 FILLER_16_168
*902 FILLER_16_180
*903 FILLER_16_192
*904 FILLER_16_197
*905 FILLER_16_209
*906 FILLER_16_221
*907 FILLER_16_233
*908 FILLER_16_245
*909 FILLER_16_251
*910 FILLER_16_253
*911 FILLER_16_265
*912 FILLER_16_27
*913 FILLER_16_277
*914 FILLER_16_289
*915 FILLER_16_29
*916 FILLER_16_3
*917 FILLER_16_301
*918 FILLER_16_307
*919 FILLER_16_309
*920 FILLER_16_321
*921 FILLER_16_333
*922 FILLER_16_345
*923 FILLER_16_357
*924 FILLER_16_363
*925 FILLER_16_365
*926 FILLER_16_377
*927 FILLER_16_389
*928 FILLER_16_395
*929 FILLER_16_403
*930 FILLER_16_41
*931 FILLER_16_53
*932 FILLER_16_65
*933 FILLER_16_77
*934 FILLER_16_83
*935 FILLER_16_85
*936 FILLER_16_97
*937 FILLER_17_105
*938 FILLER_17_111
*939 FILLER_17_113
*940 FILLER_17_121
*941 FILLER_17_134
*942 FILLER_17_141
*943 FILLER_17_15
*944 FILLER_17_153
*945 FILLER_17_165
*946 FILLER_17_169
*947 FILLER_17_181
*948 FILLER_17_193
*949 FILLER_17_205
*950 FILLER_17_217
*951 FILLER_17_223
*952 FILLER_17_225
*953 FILLER_17_237
*954 FILLER_17_249
*955 FILLER_17_261
*956 FILLER_17_27
*957 FILLER_17_273
*958 FILLER_17_279
*959 FILLER_17_281
*960 FILLER_17_293
*961 FILLER_17_3
*962 FILLER_17_305
*963 FILLER_17_317
*964 FILLER_17_329
*965 FILLER_17_335
*966 FILLER_17_337
*967 FILLER_17_349
*968 FILLER_17_361
*969 FILLER_17_373
*970 FILLER_17_385
*971 FILLER_17_39
*972 FILLER_17_391
*973 FILLER_17_395
*974 FILLER_17_403
*975 FILLER_17_51
*976 FILLER_17_55
*977 FILLER_17_57
*978 FILLER_17_69
*979 FILLER_17_81
*980 FILLER_17_93
*981 FILLER_18_109
*982 FILLER_18_121
*983 FILLER_18_134
*984 FILLER_18_144
*985 FILLER_18_15
*986 FILLER_18_150
*987 FILLER_18_162
*988 FILLER_18_174
*989 FILLER_18_186
*990 FILLER_18_194
*991 FILLER_18_197
*992 FILLER_18_209
*993 FILLER_18_221
*994 FILLER_18_233
*995 FILLER_18_245
*996 FILLER_18_251
*997 FILLER_18_253
*998 FILLER_18_265
*999 FILLER_18_27
*1000 FILLER_18_277
*1001 FILLER_18_289
*1002 FILLER_18_29
*1003 FILLER_18_3
*1004 FILLER_18_301
*1005 FILLER_18_307
*1006 FILLER_18_309
*1007 FILLER_18_321
*1008 FILLER_18_333
*1009 FILLER_18_345
*1010 FILLER_18_357
*1011 FILLER_18_363
*1012 FILLER_18_365
*1013 FILLER_18_377
*1014 FILLER_18_389
*1015 FILLER_18_395
*1016 FILLER_18_403
*1017 FILLER_18_41
*1018 FILLER_18_53
*1019 FILLER_18_65
*1020 FILLER_18_77
*1021 FILLER_18_83
*1022 FILLER_18_85
*1023 FILLER_18_97
*1024 FILLER_19_105
*1025 FILLER_19_111
*1026 FILLER_19_113
*1027 FILLER_19_127
*1028 FILLER_19_140
*1029 FILLER_19_147
*1030 FILLER_19_15
*1031 FILLER_19_153
*1032 FILLER_19_165
*1033 FILLER_19_169
*1034 FILLER_19_181
*1035 FILLER_19_193
*1036 FILLER_19_205
*1037 FILLER_19_217
*1038 FILLER_19_223
*1039 FILLER_19_225
*1040 FILLER_19_237
*1041 FILLER_19_249
*1042 FILLER_19_261
*1043 FILLER_19_27
*1044 FILLER_19_273
*1045 FILLER_19_279
*1046 FILLER_19_281
*1047 FILLER_19_293
*1048 FILLER_19_3
*1049 FILLER_19_305
*1050 FILLER_19_317
*1051 FILLER_19_329
*1052 FILLER_19_335
*1053 FILLER_19_337
*1054 FILLER_19_349
*1055 FILLER_19_361
*1056 FILLER_19_373
*1057 FILLER_19_385
*1058 FILLER_19_39
*1059 FILLER_19_391
*1060 FILLER_19_393
*1061 FILLER_19_405
*1062 FILLER_19_51
*1063 FILLER_19_55
*1064 FILLER_19_57
*1065 FILLER_19_69
*1066 FILLER_19_81
*1067 FILLER_19_93
*1068 FILLER_1_102
*1069 FILLER_1_108
*1070 FILLER_1_113
*1071 FILLER_1_118
*1072 FILLER_1_126
*1073 FILLER_1_134
*1074 FILLER_1_138
*1075 FILLER_1_145
*1076 FILLER_1_149
*1077 FILLER_1_15
*1078 FILLER_1_152
*1079 FILLER_1_158
*1080 FILLER_1_164
*1081 FILLER_1_169
*1082 FILLER_1_174
*1083 FILLER_1_182
*1084 FILLER_1_192
*1085 FILLER_1_198
*1086 FILLER_1_206
*1087 FILLER_1_214
*1088 FILLER_1_222
*1089 FILLER_1_228
*1090 FILLER_1_23
*1091 FILLER_1_234
*1092 FILLER_1_240
*1093 FILLER_1_248
*1094 FILLER_1_253
*1095 FILLER_1_257
*1096 FILLER_1_26
*1097 FILLER_1_260
*1098 FILLER_1_266
*1099 FILLER_1_273
*1100 FILLER_1_279
*1101 FILLER_1_283
*1102 FILLER_1_289
*1103 FILLER_1_3
*1104 FILLER_1_301
*1105 FILLER_1_305
*1106 FILLER_1_311
*1107 FILLER_1_317
*1108 FILLER_1_328
*1109 FILLER_1_34
*1110 FILLER_1_347
*1111 FILLER_1_361
*1112 FILLER_1_375
*1113 FILLER_1_383
*1114 FILLER_1_388
*1115 FILLER_1_393
*1116 FILLER_1_397
*1117 FILLER_1_402
*1118 FILLER_1_406
*1119 FILLER_1_41
*1120 FILLER_1_49
*1121 FILLER_1_52
*1122 FILLER_1_57
*1123 FILLER_1_62
*1124 FILLER_1_70
*1125 FILLER_1_78
*1126 FILLER_1_82
*1127 FILLER_1_89
*1128 FILLER_1_93
*1129 FILLER_1_96
*1130 FILLER_20_109
*1131 FILLER_20_117
*1132 FILLER_20_125
*1133 FILLER_20_131
*1134 FILLER_20_139
*1135 FILLER_20_15
*1136 FILLER_20_150
*1137 FILLER_20_157
*1138 FILLER_20_169
*1139 FILLER_20_181
*1140 FILLER_20_193
*1141 FILLER_20_197
*1142 FILLER_20_209
*1143 FILLER_20_221
*1144 FILLER_20_233
*1145 FILLER_20_245
*1146 FILLER_20_251
*1147 FILLER_20_253
*1148 FILLER_20_265
*1149 FILLER_20_27
*1150 FILLER_20_277
*1151 FILLER_20_289
*1152 FILLER_20_29
*1153 FILLER_20_3
*1154 FILLER_20_301
*1155 FILLER_20_307
*1156 FILLER_20_309
*1157 FILLER_20_321
*1158 FILLER_20_333
*1159 FILLER_20_345
*1160 FILLER_20_357
*1161 FILLER_20_363
*1162 FILLER_20_365
*1163 FILLER_20_377
*1164 FILLER_20_389
*1165 FILLER_20_395
*1166 FILLER_20_403
*1167 FILLER_20_41
*1168 FILLER_20_53
*1169 FILLER_20_65
*1170 FILLER_20_77
*1171 FILLER_20_83
*1172 FILLER_20_85
*1173 FILLER_20_97
*1174 FILLER_21_105
*1175 FILLER_21_111
*1176 FILLER_21_113
*1177 FILLER_21_129
*1178 FILLER_21_141
*1179 FILLER_21_149
*1180 FILLER_21_15
*1181 FILLER_21_152
*1182 FILLER_21_158
*1183 FILLER_21_166
*1184 FILLER_21_169
*1185 FILLER_21_181
*1186 FILLER_21_193
*1187 FILLER_21_205
*1188 FILLER_21_217
*1189 FILLER_21_223
*1190 FILLER_21_225
*1191 FILLER_21_237
*1192 FILLER_21_249
*1193 FILLER_21_261
*1194 FILLER_21_27
*1195 FILLER_21_273
*1196 FILLER_21_279
*1197 FILLER_21_281
*1198 FILLER_21_293
*1199 FILLER_21_3
*1200 FILLER_21_305
*1201 FILLER_21_317
*1202 FILLER_21_329
*1203 FILLER_21_335
*1204 FILLER_21_337
*1205 FILLER_21_349
*1206 FILLER_21_361
*1207 FILLER_21_373
*1208 FILLER_21_385
*1209 FILLER_21_39
*1210 FILLER_21_391
*1211 FILLER_21_395
*1212 FILLER_21_403
*1213 FILLER_21_51
*1214 FILLER_21_55
*1215 FILLER_21_57
*1216 FILLER_21_69
*1217 FILLER_21_81
*1218 FILLER_21_93
*1219 FILLER_22_109
*1220 FILLER_22_121
*1221 FILLER_22_133
*1222 FILLER_22_139
*1223 FILLER_22_141
*1224 FILLER_22_15
*1225 FILLER_22_156
*1226 FILLER_22_163
*1227 FILLER_22_169
*1228 FILLER_22_181
*1229 FILLER_22_193
*1230 FILLER_22_197
*1231 FILLER_22_209
*1232 FILLER_22_221
*1233 FILLER_22_233
*1234 FILLER_22_245
*1235 FILLER_22_251
*1236 FILLER_22_253
*1237 FILLER_22_265
*1238 FILLER_22_27
*1239 FILLER_22_277
*1240 FILLER_22_289
*1241 FILLER_22_29
*1242 FILLER_22_3
*1243 FILLER_22_301
*1244 FILLER_22_307
*1245 FILLER_22_309
*1246 FILLER_22_321
*1247 FILLER_22_333
*1248 FILLER_22_345
*1249 FILLER_22_357
*1250 FILLER_22_363
*1251 FILLER_22_365
*1252 FILLER_22_377
*1253 FILLER_22_389
*1254 FILLER_22_395
*1255 FILLER_22_403
*1256 FILLER_22_41
*1257 FILLER_22_53
*1258 FILLER_22_65
*1259 FILLER_22_77
*1260 FILLER_22_83
*1261 FILLER_22_85
*1262 FILLER_22_97
*1263 FILLER_23_105
*1264 FILLER_23_111
*1265 FILLER_23_113
*1266 FILLER_23_125
*1267 FILLER_23_137
*1268 FILLER_23_149
*1269 FILLER_23_15
*1270 FILLER_23_164
*1271 FILLER_23_172
*1272 FILLER_23_178
*1273 FILLER_23_190
*1274 FILLER_23_202
*1275 FILLER_23_214
*1276 FILLER_23_222
*1277 FILLER_23_225
*1278 FILLER_23_237
*1279 FILLER_23_249
*1280 FILLER_23_261
*1281 FILLER_23_27
*1282 FILLER_23_273
*1283 FILLER_23_279
*1284 FILLER_23_281
*1285 FILLER_23_293
*1286 FILLER_23_3
*1287 FILLER_23_305
*1288 FILLER_23_317
*1289 FILLER_23_329
*1290 FILLER_23_335
*1291 FILLER_23_337
*1292 FILLER_23_349
*1293 FILLER_23_361
*1294 FILLER_23_373
*1295 FILLER_23_385
*1296 FILLER_23_39
*1297 FILLER_23_391
*1298 FILLER_23_395
*1299 FILLER_23_403
*1300 FILLER_23_51
*1301 FILLER_23_55
*1302 FILLER_23_57
*1303 FILLER_23_69
*1304 FILLER_23_81
*1305 FILLER_23_93
*1306 FILLER_24_109
*1307 FILLER_24_121
*1308 FILLER_24_133
*1309 FILLER_24_139
*1310 FILLER_24_141
*1311 FILLER_24_15
*1312 FILLER_24_153
*1313 FILLER_24_161
*1314 FILLER_24_171
*1315 FILLER_24_178
*1316 FILLER_24_184
*1317 FILLER_24_197
*1318 FILLER_24_209
*1319 FILLER_24_221
*1320 FILLER_24_233
*1321 FILLER_24_245
*1322 FILLER_24_251
*1323 FILLER_24_253
*1324 FILLER_24_265
*1325 FILLER_24_27
*1326 FILLER_24_277
*1327 FILLER_24_289
*1328 FILLER_24_29
*1329 FILLER_24_3
*1330 FILLER_24_301
*1331 FILLER_24_307
*1332 FILLER_24_309
*1333 FILLER_24_321
*1334 FILLER_24_333
*1335 FILLER_24_345
*1336 FILLER_24_357
*1337 FILLER_24_363
*1338 FILLER_24_365
*1339 FILLER_24_377
*1340 FILLER_24_389
*1341 FILLER_24_401
*1342 FILLER_24_41
*1343 FILLER_24_53
*1344 FILLER_24_65
*1345 FILLER_24_77
*1346 FILLER_24_83
*1347 FILLER_24_85
*1348 FILLER_24_97
*1349 FILLER_25_105
*1350 FILLER_25_111
*1351 FILLER_25_113
*1352 FILLER_25_125
*1353 FILLER_25_137
*1354 FILLER_25_149
*1355 FILLER_25_15
*1356 FILLER_25_161
*1357 FILLER_25_167
*1358 FILLER_25_169
*1359 FILLER_25_179
*1360 FILLER_25_186
*1361 FILLER_25_198
*1362 FILLER_25_210
*1363 FILLER_25_222
*1364 FILLER_25_225
*1365 FILLER_25_237
*1366 FILLER_25_249
*1367 FILLER_25_261
*1368 FILLER_25_27
*1369 FILLER_25_273
*1370 FILLER_25_279
*1371 FILLER_25_281
*1372 FILLER_25_293
*1373 FILLER_25_3
*1374 FILLER_25_305
*1375 FILLER_25_317
*1376 FILLER_25_329
*1377 FILLER_25_335
*1378 FILLER_25_337
*1379 FILLER_25_349
*1380 FILLER_25_361
*1381 FILLER_25_373
*1382 FILLER_25_385
*1383 FILLER_25_39
*1384 FILLER_25_391
*1385 FILLER_25_395
*1386 FILLER_25_403
*1387 FILLER_25_51
*1388 FILLER_25_55
*1389 FILLER_25_57
*1390 FILLER_25_69
*1391 FILLER_25_81
*1392 FILLER_25_93
*1393 FILLER_26_109
*1394 FILLER_26_121
*1395 FILLER_26_133
*1396 FILLER_26_139
*1397 FILLER_26_141
*1398 FILLER_26_15
*1399 FILLER_26_153
*1400 FILLER_26_165
*1401 FILLER_26_177
*1402 FILLER_26_188
*1403 FILLER_26_199
*1404 FILLER_26_211
*1405 FILLER_26_217
*1406 FILLER_26_229
*1407 FILLER_26_241
*1408 FILLER_26_249
*1409 FILLER_26_253
*1410 FILLER_26_265
*1411 FILLER_26_27
*1412 FILLER_26_277
*1413 FILLER_26_289
*1414 FILLER_26_29
*1415 FILLER_26_3
*1416 FILLER_26_301
*1417 FILLER_26_307
*1418 FILLER_26_309
*1419 FILLER_26_321
*1420 FILLER_26_333
*1421 FILLER_26_345
*1422 FILLER_26_357
*1423 FILLER_26_363
*1424 FILLER_26_365
*1425 FILLER_26_377
*1426 FILLER_26_389
*1427 FILLER_26_395
*1428 FILLER_26_403
*1429 FILLER_26_41
*1430 FILLER_26_53
*1431 FILLER_26_65
*1432 FILLER_26_77
*1433 FILLER_26_83
*1434 FILLER_26_85
*1435 FILLER_26_97
*1436 FILLER_27_105
*1437 FILLER_27_111
*1438 FILLER_27_113
*1439 FILLER_27_125
*1440 FILLER_27_137
*1441 FILLER_27_149
*1442 FILLER_27_15
*1443 FILLER_27_161
*1444 FILLER_27_167
*1445 FILLER_27_169
*1446 FILLER_27_181
*1447 FILLER_27_188
*1448 FILLER_27_200
*1449 FILLER_27_212
*1450 FILLER_27_225
*1451 FILLER_27_237
*1452 FILLER_27_249
*1453 FILLER_27_261
*1454 FILLER_27_27
*1455 FILLER_27_273
*1456 FILLER_27_279
*1457 FILLER_27_281
*1458 FILLER_27_293
*1459 FILLER_27_3
*1460 FILLER_27_305
*1461 FILLER_27_317
*1462 FILLER_27_329
*1463 FILLER_27_335
*1464 FILLER_27_337
*1465 FILLER_27_349
*1466 FILLER_27_361
*1467 FILLER_27_373
*1468 FILLER_27_385
*1469 FILLER_27_39
*1470 FILLER_27_391
*1471 FILLER_27_395
*1472 FILLER_27_403
*1473 FILLER_27_51
*1474 FILLER_27_55
*1475 FILLER_27_57
*1476 FILLER_27_69
*1477 FILLER_27_81
*1478 FILLER_27_93
*1479 FILLER_28_109
*1480 FILLER_28_121
*1481 FILLER_28_133
*1482 FILLER_28_139
*1483 FILLER_28_141
*1484 FILLER_28_15
*1485 FILLER_28_153
*1486 FILLER_28_165
*1487 FILLER_28_177
*1488 FILLER_28_189
*1489 FILLER_28_192
*1490 FILLER_28_197
*1491 FILLER_28_201
*1492 FILLER_28_207
*1493 FILLER_28_219
*1494 FILLER_28_231
*1495 FILLER_28_243
*1496 FILLER_28_251
*1497 FILLER_28_253
*1498 FILLER_28_265
*1499 FILLER_28_27
*1500 FILLER_28_277
*1501 FILLER_28_289
*1502 FILLER_28_29
*1503 FILLER_28_3
*1504 FILLER_28_301
*1505 FILLER_28_307
*1506 FILLER_28_309
*1507 FILLER_28_321
*1508 FILLER_28_333
*1509 FILLER_28_345
*1510 FILLER_28_357
*1511 FILLER_28_363
*1512 FILLER_28_365
*1513 FILLER_28_377
*1514 FILLER_28_389
*1515 FILLER_28_395
*1516 FILLER_28_403
*1517 FILLER_28_41
*1518 FILLER_28_53
*1519 FILLER_28_65
*1520 FILLER_28_77
*1521 FILLER_28_83
*1522 FILLER_28_85
*1523 FILLER_28_97
*1524 FILLER_29_105
*1525 FILLER_29_111
*1526 FILLER_29_113
*1527 FILLER_29_125
*1528 FILLER_29_137
*1529 FILLER_29_149
*1530 FILLER_29_15
*1531 FILLER_29_161
*1532 FILLER_29_167
*1533 FILLER_29_169
*1534 FILLER_29_181
*1535 FILLER_29_191
*1536 FILLER_29_204
*1537 FILLER_29_211
*1538 FILLER_29_223
*1539 FILLER_29_225
*1540 FILLER_29_237
*1541 FILLER_29_249
*1542 FILLER_29_261
*1543 FILLER_29_27
*1544 FILLER_29_273
*1545 FILLER_29_279
*1546 FILLER_29_281
*1547 FILLER_29_293
*1548 FILLER_29_3
*1549 FILLER_29_305
*1550 FILLER_29_317
*1551 FILLER_29_329
*1552 FILLER_29_335
*1553 FILLER_29_337
*1554 FILLER_29_349
*1555 FILLER_29_361
*1556 FILLER_29_373
*1557 FILLER_29_385
*1558 FILLER_29_39
*1559 FILLER_29_391
*1560 FILLER_29_393
*1561 FILLER_29_405
*1562 FILLER_29_51
*1563 FILLER_29_55
*1564 FILLER_29_57
*1565 FILLER_29_69
*1566 FILLER_29_81
*1567 FILLER_29_93
*1568 FILLER_2_109
*1569 FILLER_2_121
*1570 FILLER_2_133
*1571 FILLER_2_139
*1572 FILLER_2_141
*1573 FILLER_2_15
*1574 FILLER_2_153
*1575 FILLER_2_165
*1576 FILLER_2_177
*1577 FILLER_2_189
*1578 FILLER_2_195
*1579 FILLER_2_197
*1580 FILLER_2_209
*1581 FILLER_2_221
*1582 FILLER_2_233
*1583 FILLER_2_245
*1584 FILLER_2_251
*1585 FILLER_2_253
*1586 FILLER_2_265
*1587 FILLER_2_27
*1588 FILLER_2_277
*1589 FILLER_2_289
*1590 FILLER_2_29
*1591 FILLER_2_3
*1592 FILLER_2_301
*1593 FILLER_2_307
*1594 FILLER_2_309
*1595 FILLER_2_315
*1596 FILLER_2_318
*1597 FILLER_2_330
*1598 FILLER_2_334
*1599 FILLER_2_337
*1600 FILLER_2_351
*1601 FILLER_2_363
*1602 FILLER_2_365
*1603 FILLER_2_376
*1604 FILLER_2_392
*1605 FILLER_2_398
*1606 FILLER_2_403
*1607 FILLER_2_41
*1608 FILLER_2_47
*1609 FILLER_2_59
*1610 FILLER_2_71
*1611 FILLER_2_83
*1612 FILLER_2_85
*1613 FILLER_2_97
*1614 FILLER_30_109
*1615 FILLER_30_121
*1616 FILLER_30_133
*1617 FILLER_30_139
*1618 FILLER_30_141
*1619 FILLER_30_15
*1620 FILLER_30_153
*1621 FILLER_30_165
*1622 FILLER_30_177
*1623 FILLER_30_189
*1624 FILLER_30_195
*1625 FILLER_30_197
*1626 FILLER_30_201