*SPEF "ieee 1481-1999"
*DESIGN "interconnect_outer"
*DATE "11:11:11 Fri 11 11, 1111"
*VENDOR "OpenRCX"
*PROGRAM "Parallel Extraction"
*VERSION "1.0"
*DESIGN_FLOW "NAME_SCOPE LOCAL" "PIN_CAP NONE"
*DIVIDER /
*DELIMITER :
*BUS_DELIMITER []
*T_UNIT 1 NS
*C_UNIT 1 PF
*R_UNIT 1 OHM
*L_UNIT 1 HENRY

*NAME_MAP
*1 c0_clk
*2 c1_clk
*3 dcache_clk
*4 ic0_clk
*5 ic1_clk
*6 inner_clock
*7 inner_disable
*8 inner_embed_mode
*9 inner_ext_irq
*10 inner_reset
*11 inner_wb_4_burst
*12 inner_wb_8_burst
*13 inner_wb_ack
*14 inner_wb_adr[0]
*15 inner_wb_adr[10]
*16 inner_wb_adr[11]
*17 inner_wb_adr[12]
*18 inner_wb_adr[13]
*19 inner_wb_adr[14]
*20 inner_wb_adr[15]
*21 inner_wb_adr[16]
*22 inner_wb_adr[17]
*23 inner_wb_adr[18]
*24 inner_wb_adr[19]
*25 inner_wb_adr[1]
*26 inner_wb_adr[20]
*27 inner_wb_adr[21]
*28 inner_wb_adr[22]
*29 inner_wb_adr[23]
*30 inner_wb_adr[2]
*31 inner_wb_adr[3]
*32 inner_wb_adr[4]
*33 inner_wb_adr[5]
*34 inner_wb_adr[6]
*35 inner_wb_adr[7]
*36 inner_wb_adr[8]
*37 inner_wb_adr[9]
*38 inner_wb_cyc
*39 inner_wb_err
*40 inner_wb_i_dat[0]
*41 inner_wb_i_dat[10]
*42 inner_wb_i_dat[11]
*43 inner_wb_i_dat[12]
*44 inner_wb_i_dat[13]
*45 inner_wb_i_dat[14]
*46 inner_wb_i_dat[15]
*47 inner_wb_i_dat[1]
*48 inner_wb_i_dat[2]
*49 inner_wb_i_dat[3]
*50 inner_wb_i_dat[4]
*51 inner_wb_i_dat[5]
*52 inner_wb_i_dat[6]
*53 inner_wb_i_dat[7]
*54 inner_wb_i_dat[8]
*55 inner_wb_i_dat[9]
*56 inner_wb_o_dat[0]
*57 inner_wb_o_dat[10]
*58 inner_wb_o_dat[11]
*59 inner_wb_o_dat[12]
*60 inner_wb_o_dat[13]
*61 inner_wb_o_dat[14]
*62 inner_wb_o_dat[15]
*63 inner_wb_o_dat[1]
*64 inner_wb_o_dat[2]
*65 inner_wb_o_dat[3]
*66 inner_wb_o_dat[4]
*67 inner_wb_o_dat[5]
*68 inner_wb_o_dat[6]
*69 inner_wb_o_dat[7]
*70 inner_wb_o_dat[8]
*71 inner_wb_o_dat[9]
*72 inner_wb_sel[0]
*73 inner_wb_sel[1]
*74 inner_wb_stb
*75 inner_wb_we
*76 iram_addr[0]
*77 iram_addr[1]
*78 iram_addr[2]
*79 iram_addr[3]
*80 iram_addr[4]
*81 iram_addr[5]
*82 iram_clk
*83 iram_i_data[0]
*84 iram_i_data[10]
*85 iram_i_data[11]
*86 iram_i_data[12]
*87 iram_i_data[13]
*88 iram_i_data[14]
*89 iram_i_data[15]
*90 iram_i_data[1]
*91 iram_i_data[2]
*92 iram_i_data[3]
*93 iram_i_data[4]
*94 iram_i_data[5]
*95 iram_i_data[6]
*96 iram_i_data[7]
*97 iram_i_data[8]
*98 iram_i_data[9]
*99 iram_o_data[0]
*100 iram_o_data[10]
*101 iram_o_data[11]
*102 iram_o_data[12]
*103 iram_o_data[13]
*104 iram_o_data[14]
*105 iram_o_data[15]
*106 iram_o_data[1]
*107 iram_o_data[2]
*108 iram_o_data[3]
*109 iram_o_data[4]
*110 iram_o_data[5]
*111 iram_o_data[6]
*112 iram_o_data[7]
*113 iram_o_data[8]
*114 iram_o_data[9]
*115 iram_we
*116 net265
*117 net266
*118 net267
*119 la_data_in[0]
*120 la_data_in[10]
*121 la_data_in[11]
*122 la_data_in[12]
*123 la_data_in[13]
*124 la_data_in[14]
*125 la_data_in[15]
*126 la_data_in[16]
*127 la_data_in[17]
*128 la_data_in[18]
*129 la_data_in[19]
*130 la_data_in[1]
*131 la_data_in[20]
*132 la_data_in[21]
*133 la_data_in[22]
*134 la_data_in[23]
*135 la_data_in[24]
*136 la_data_in[25]
*137 la_data_in[26]
*138 la_data_in[27]
*139 la_data_in[28]
*140 la_data_in[29]
*141 la_data_in[2]
*142 la_data_in[30]
*143 la_data_in[31]
*144 la_data_in[32]
*145 la_data_in[33]
*146 la_data_in[34]
*147 la_data_in[35]
*148 la_data_in[36]
*149 la_data_in[37]
*150 la_data_in[38]
*151 la_data_in[39]
*152 la_data_in[3]
*153 la_data_in[40]
*154 la_data_in[41]
*155 la_data_in[42]
*156 la_data_in[43]
*157 la_data_in[44]
*158 la_data_in[45]
*159 la_data_in[46]
*160 la_data_in[47]
*161 la_data_in[48]
*162 la_data_in[49]
*163 la_data_in[4]
*164 la_data_in[50]
*165 la_data_in[51]
*166 la_data_in[52]
*167 la_data_in[53]
*168 la_data_in[54]
*169 la_data_in[55]
*170 la_data_in[56]
*171 la_data_in[57]
*172 la_data_in[58]
*173 la_data_in[59]
*174 la_data_in[5]
*175 la_data_in[60]
*176 la_data_in[61]
*177 la_data_in[62]
*178 la_data_in[63]
*179 la_data_in[6]
*180 la_data_in[7]
*181 la_data_in[8]
*182 la_data_in[9]
*183 net268
*184 net278
*185 net279
*186 net280
*187 net281
*188 net282
*189 net283
*190 net284
*191 net285
*192 net286
*193 net287
*194 net269
*195 net288
*196 net289
*197 net290
*198 net291
*199 net292
*200 net293
*201 net294
*202 net295
*203 net296
*204 net297
*205 net270
*206 net298
*207 net299
*208 net300
*209 net301
*210 net302
*211 net303
*212 net304
*213 net305
*214 net306
*215 net307
*216 net271
*217 net308
*218 net309
*219 net310
*220 net311
*221 net312
*222 net313
*223 net314
*224 net315
*225 net316
*226 net317
*227 net272
*228 net318
*229 net319
*230 net320
*231 net321
*232 net322
*233 net323
*234 net324
*235 net325
*236 net326
*237 net327
*238 net273
*239 net328
*240 net329
*241 net330
*242 net331
*243 net274
*244 net275
*245 net276
*246 net277
*247 la_oenb[0]
*248 la_oenb[10]
*249 la_oenb[11]
*250 la_oenb[12]
*251 la_oenb[13]
*252 la_oenb[14]
*253 la_oenb[15]
*254 la_oenb[16]
*255 la_oenb[17]
*256 la_oenb[18]
*257 la_oenb[19]
*258 la_oenb[1]
*259 la_oenb[20]
*260 la_oenb[21]
*261 la_oenb[22]
*262 la_oenb[23]
*263 la_oenb[24]
*264 la_oenb[25]
*265 la_oenb[26]
*266 la_oenb[27]
*267 la_oenb[28]
*268 la_oenb[29]
*269 la_oenb[2]
*270 la_oenb[30]
*271 la_oenb[31]
*272 la_oenb[32]
*273 la_oenb[33]
*274 la_oenb[34]
*275 la_oenb[35]
*276 la_oenb[36]
*277 la_oenb[37]
*278 la_oenb[38]
*279 la_oenb[39]
*280 la_oenb[3]
*281 la_oenb[40]
*282 la_oenb[41]
*283 la_oenb[42]
*284 la_oenb[43]
*285 la_oenb[44]
*286 la_oenb[45]
*287 la_oenb[46]
*288 la_oenb[47]
*289 la_oenb[48]
*290 la_oenb[49]
*291 la_oenb[4]
*292 la_oenb[50]
*293 la_oenb[51]
*294 la_oenb[52]
*295 la_oenb[53]
*296 la_oenb[54]
*297 la_oenb[55]
*298 la_oenb[56]
*299 la_oenb[57]
*300 la_oenb[58]
*301 la_oenb[59]
*302 la_oenb[5]
*303 la_oenb[60]
*304 la_oenb[61]
*305 la_oenb[62]
*306 la_oenb[63]
*307 la_oenb[6]
*308 la_oenb[7]
*309 la_oenb[8]
*310 la_oenb[9]
*311 m_io_in[0]
*312 m_io_in[10]
*313 m_io_in[11]
*314 m_io_in[12]
*315 m_io_in[13]
*316 m_io_in[14]
*317 m_io_in[15]
*318 m_io_in[16]
*319 m_io_in[17]
*320 m_io_in[18]
*321 m_io_in[19]
*322 m_io_in[1]
*323 m_io_in[20]
*324 m_io_in[21]
*325 m_io_in[22]
*326 m_io_in[23]
*327 m_io_in[24]
*328 m_io_in[25]
*329 m_io_in[26]
*330 m_io_in[27]
*331 m_io_in[28]
*332 m_io_in[29]
*333 m_io_in[2]
*334 m_io_in[30]
*335 m_io_in[31]
*336 m_io_in[32]
*337 m_io_in[33]
*338 m_io_in[34]
*339 m_io_in[35]
*340 m_io_in[36]
*341 m_io_in[37]
*342 m_io_in[3]
*343 m_io_in[4]
*344 m_io_in[5]
*345 m_io_in[6]
*346 m_io_in[7]
*347 m_io_in[8]
*348 m_io_in[9]
*349 m_io_oeb[0]
*350 m_io_oeb[10]
*351 m_io_oeb[11]
*352 m_io_oeb[12]
*353 m_io_oeb[13]
*354 m_io_oeb[14]
*355 m_io_oeb[15]
*356 m_io_oeb[16]
*357 m_io_oeb[17]
*358 m_io_oeb[18]
*359 m_io_oeb[19]
*360 m_io_oeb[1]
*361 m_io_oeb[20]
*362 m_io_oeb[21]
*363 m_io_oeb[22]
*364 m_io_oeb[23]
*365 m_io_oeb[24]
*366 m_io_oeb[25]
*367 net379
*368 net380
*369 net334
*370 net335
*371 m_io_oeb[2]
*372 net381
*373 net382
*374 net383
*375 net384
*376 net385
*377 net386
*378 net336
*379 net337
*380 m_io_oeb[3]
*381 m_io_oeb[4]
*382 m_io_oeb[5]
*383 m_io_oeb[6]
*384 m_io_oeb[7]
*385 net332
*386 net333
*387 m_io_out[0]
*388 m_io_out[10]
*389 m_io_out[11]
*390 m_io_out[12]
*391 m_io_out[13]
*392 m_io_out[14]
*393 m_io_out[15]
*394 m_io_out[16]
*395 m_io_out[17]
*396 m_io_out[18]
*397 m_io_out[19]
*398 m_io_out[1]
*399 m_io_out[20]
*400 m_io_out[21]
*401 m_io_out[22]
*402 m_io_out[23]
*403 m_io_out[24]
*404 m_io_out[25]
*405 net338
*406 net339
*407 net387
*408 m_io_out[29]
*409 m_io_out[2]
*410 net340
*411 net341
*412 net342
*413 net343
*414 net344
*415 net345
*416 m_io_out[36]
*417 m_io_out[37]
*418 m_io_out[3]
*419 m_io_out[4]
*420 m_io_out[5]
*421 m_io_out[6]
*422 m_io_out[7]
*423 m_io_out[8]
*424 m_io_out[9]
*425 net346
*426 mgt_wb_adr_i[0]
*427 mgt_wb_adr_i[10]
*428 mgt_wb_adr_i[11]
*429 mgt_wb_adr_i[12]
*430 mgt_wb_adr_i[13]
*431 mgt_wb_adr_i[14]
*432 mgt_wb_adr_i[15]
*433 mgt_wb_adr_i[16]
*434 mgt_wb_adr_i[17]
*435 mgt_wb_adr_i[18]
*436 mgt_wb_adr_i[19]
*437 mgt_wb_adr_i[1]
*438 mgt_wb_adr_i[20]
*439 mgt_wb_adr_i[21]
*440 mgt_wb_adr_i[22]
*441 mgt_wb_adr_i[23]
*442 mgt_wb_adr_i[24]
*443 mgt_wb_adr_i[25]
*444 mgt_wb_adr_i[26]
*445 mgt_wb_adr_i[27]
*446 mgt_wb_adr_i[28]
*447 mgt_wb_adr_i[29]
*448 mgt_wb_adr_i[2]
*449 mgt_wb_adr_i[30]
*450 mgt_wb_adr_i[31]
*451 mgt_wb_adr_i[3]
*452 mgt_wb_adr_i[4]
*453 mgt_wb_adr_i[5]
*454 mgt_wb_adr_i[6]
*455 mgt_wb_adr_i[7]
*456 mgt_wb_adr_i[8]
*457 mgt_wb_adr_i[9]
*458 mgt_wb_clk_i
*459 mgt_wb_cyc_i
*460 mgt_wb_dat_i[0]
*461 mgt_wb_dat_i[10]
*462 mgt_wb_dat_i[11]
*463 mgt_wb_dat_i[12]
*464 mgt_wb_dat_i[13]
*465 mgt_wb_dat_i[14]
*466 mgt_wb_dat_i[15]
*467 mgt_wb_dat_i[16]
*468 mgt_wb_dat_i[17]
*469 mgt_wb_dat_i[18]
*470 mgt_wb_dat_i[19]
*471 mgt_wb_dat_i[1]
*472 mgt_wb_dat_i[20]
*473 mgt_wb_dat_i[21]
*474 mgt_wb_dat_i[22]
*475 mgt_wb_dat_i[23]
*476 mgt_wb_dat_i[24]
*477 mgt_wb_dat_i[25]
*478 mgt_wb_dat_i[26]
*479 mgt_wb_dat_i[27]
*480 mgt_wb_dat_i[28]
*481 mgt_wb_dat_i[29]
*482 mgt_wb_dat_i[2]
*483 mgt_wb_dat_i[30]
*484 mgt_wb_dat_i[31]
*485 mgt_wb_dat_i[3]
*486 mgt_wb_dat_i[4]
*487 mgt_wb_dat_i[5]
*488 mgt_wb_dat_i[6]
*489 mgt_wb_dat_i[7]
*490 mgt_wb_dat_i[8]
*491 mgt_wb_dat_i[9]
*492 net347
*493 net357
*494 net358
*495 net359
*496 net360
*497 net361
*498 net362
*499 net363
*500 net364
*501 net365
*502 net366
*503 net348
*504 net367
*505 net368
*506 net369
*507 net370
*508 net371
*509 net372
*510 net373
*511 net374
*512 net375
*513 net376
*514 net349
*515 net377
*516 net378
*517 net350
*518 net351
*519 net352
*520 net353
*521 net354
*522 net355
*523 net356
*524 mgt_wb_rst_i
*525 mgt_wb_sel_i[0]
*526 mgt_wb_sel_i[1]
*527 mgt_wb_sel_i[2]
*528 mgt_wb_sel_i[3]
*529 mgt_wb_stb_i
*530 mgt_wb_we_i
*531 user_clock2
*534 _0000_
*535 _0001_
*536 _0002_
*537 _0003_
*538 _0004_
*539 _0005_
*540 _0006_
*541 _0007_
*542 _0008_
*543 _0009_
*544 _0010_
*545 _0011_
*546 _0012_
*547 _0013_
*548 _0014_
*549 _0015_
*550 _0016_
*551 _0017_
*552 _0018_
*553 _0019_
*554 _0020_
*555 _0021_
*556 _0022_
*557 _0023_
*558 _0024_
*559 _0025_
*560 _0026_
*561 _0027_
*562 _0028_
*563 _0029_
*564 _0030_
*565 _0031_
*566 _0032_
*567 _0033_
*568 _0034_
*569 _0035_
*570 _0036_
*571 _0037_
*572 _0038_
*573 _0039_
*574 _0040_
*575 _0041_
*576 _0042_
*577 _0043_
*578 _0044_
*579 _0045_
*580 _0046_
*581 _0047_
*582 _0048_
*583 _0049_
*584 _0050_
*585 _0051_
*586 _0052_
*587 _0053_
*588 _0054_
*589 _0055_
*590 _0056_
*591 _0057_
*592 _0058_
*593 _0059_
*594 _0060_
*595 _0061_
*596 _0062_
*597 _0063_
*598 _0064_
*599 _0065_
*600 _0066_
*601 _0067_
*602 _0068_
*603 _0069_
*604 _0070_
*605 _0071_
*606 _0072_
*607 _0073_
*608 _0074_
*609 _0075_
*610 _0076_
*611 _0077_
*612 _0078_
*613 _0079_
*614 _0080_
*615 _0081_
*616 _0082_
*617 _0083_
*618 _0084_
*619 _0085_
*620 _0086_
*621 _0087_
*622 _0088_
*623 _0089_
*624 _0090_
*625 _0091_
*626 _0092_
*627 _0093_
*628 _0094_
*629 _0095_
*630 _0096_
*631 _0097_
*632 _0098_
*633 _0099_
*634 _0100_
*635 _0101_
*636 _0102_
*637 _0103_
*638 _0104_
*639 _0105_
*640 _0106_
*641 _0107_
*642 _0108_
*643 _0109_
*644 _0110_
*645 _0111_
*646 _0112_
*647 _0113_
*648 _0114_
*649 _0115_
*650 _0116_
*651 _0117_
*652 _0118_
*653 _0119_
*654 _0120_
*655 _0121_
*656 _0122_
*657 _0123_
*658 _0124_
*659 _0125_
*660 _0126_
*661 _0127_
*662 _0128_
*663 _0129_
*664 _0130_
*665 _0131_
*666 _0132_
*667 _0133_
*668 _0134_
*669 _0135_
*670 _0136_
*671 _0137_
*672 _0138_
*673 _0139_
*674 _0140_
*675 _0141_
*676 _0142_
*677 _0143_
*678 _0144_
*679 _0145_
*680 _0146_
*681 _0147_
*682 _0148_
*683 _0149_
*684 _0150_
*685 _0151_
*686 _0152_
*687 _0153_
*688 _0154_
*689 _0155_
*690 _0156_
*691 _0157_
*692 _0158_
*693 _0159_
*694 _0160_
*695 _0161_
*696 _0162_
*697 _0163_
*698 _0164_
*699 _0165_
*700 _0166_
*701 _0167_
*702 _0168_
*703 _0169_
*704 _0170_
*705 _0171_
*706 _0172_
*707 _0173_
*708 _0174_
*709 _0175_
*710 _0176_
*711 _0177_
*712 _0178_
*713 _0179_
*714 _0180_
*715 _0181_
*716 _0182_
*717 _0183_
*718 _0184_
*719 _0185_
*720 _0186_
*721 _0187_
*722 _0188_
*723 _0189_
*724 _0190_
*725 _0191_
*726 _0192_
*727 _0193_
*728 _0194_
*729 _0195_
*730 _0196_
*731 _0197_
*732 _0198_
*733 _0199_
*734 _0200_
*735 _0201_
*736 _0202_
*737 _0203_
*738 _0204_
*739 _0205_
*740 _0206_
*741 _0207_
*742 _0208_
*743 _0209_
*744 _0210_
*745 _0211_
*746 _0212_
*747 _0213_
*748 _0214_
*749 _0215_
*750 _0216_
*751 _0217_
*752 _0218_
*753 _0219_
*754 _0220_
*755 _0221_
*756 _0222_
*757 _0223_
*758 _0224_
*759 _0225_
*760 _0226_
*761 _0227_
*762 _0228_
*763 _0229_
*764 _0230_
*765 _0231_
*766 _0232_
*767 _0233_
*768 _0234_
*769 _0235_
*770 _0236_
*771 _0237_
*772 _0238_
*773 _0239_
*774 _0240_
*775 _0241_
*776 _0242_
*777 _0243_
*778 _0244_
*779 _0245_
*780 _0246_
*781 _0247_
*782 _0248_
*783 _0249_
*784 _0250_
*785 _0251_
*786 _0252_
*787 _0253_
*788 _0254_
*789 _0255_
*790 _0256_
*791 _0257_
*792 _0258_
*793 _0259_
*794 _0260_
*795 _0261_
*796 _0262_
*797 _0263_
*798 _0264_
*799 _0265_
*800 _0266_
*801 _0267_
*802 _0268_
*803 _0269_
*804 _0270_
*805 _0271_
*806 _0272_
*807 _0273_
*808 _0274_
*809 _0275_
*810 _0276_
*811 _0277_
*812 _0278_
*813 _0279_
*814 _0280_
*815 _0281_
*816 _0282_
*817 _0283_
*818 _0284_
*819 _0285_
*820 _0286_
*821 _0287_
*822 _0288_
*823 _0289_
*824 _0290_
*825 _0291_
*826 _0292_
*827 _0293_
*828 _0294_
*829 _0295_
*830 _0296_
*831 _0297_
*832 _0298_
*833 _0299_
*834 _0300_
*835 _0301_
*836 _0302_
*837 _0303_
*838 _0304_
*839 _0305_
*840 _0306_
*841 _0307_
*842 _0308_
*843 _0309_
*844 _0310_
*845 _0311_
*846 _0312_
*847 _0313_
*848 _0314_
*849 _0315_
*850 _0316_
*851 _0317_
*852 _0318_
*853 _0319_
*854 _0320_
*855 _0321_
*856 _0322_
*857 _0323_
*858 _0324_
*859 _0325_
*860 _0326_
*861 _0327_
*862 _0328_
*863 _0329_
*864 _0330_
*865 _0331_
*866 _0332_
*867 _0333_
*868 _0334_
*869 _0335_
*870 _0336_
*871 _0337_
*872 _0338_
*873 _0339_
*874 _0340_
*875 _0341_
*876 _0342_
*877 _0343_
*878 _0344_
*879 _0345_
*880 _0346_
*881 _0347_
*882 _0348_
*883 _0349_
*884 _0350_
*885 _0351_
*886 _0352_
*887 _0353_
*888 _0354_
*889 _0355_
*890 _0356_
*891 _0357_
*892 _0358_
*893 _0359_
*894 _0360_
*895 _0361_
*896 _0362_
*897 _0363_
*898 _0364_
*899 _0365_
*900 _0366_
*901 _0367_
*902 _0368_
*903 _0369_
*904 _0370_
*905 _0371_
*906 _0372_
*907 _0373_
*908 _0374_
*909 _0375_
*910 _0376_
*911 _0377_
*912 _0378_
*913 _0379_
*914 _0380_
*915 _0381_
*916 _0382_
*917 _0383_
*918 _0384_
*919 _0385_
*920 _0386_
*921 _0387_
*922 _0388_
*923 _0389_
*924 _0390_
*925 _0391_
*926 _0392_
*927 _0393_
*928 _0394_
*929 _0395_
*930 _0396_
*931 _0397_
*932 _0398_
*933 _0399_
*934 _0400_
*935 _0401_
*936 _0402_
*937 _0403_
*938 _0404_
*939 _0405_
*940 _0406_
*941 _0407_
*942 _0408_
*943 _0409_
*944 _0410_
*945 _0411_
*946 _0412_
*947 _0413_
*948 _0414_
*949 _0415_
*950 _0416_
*951 _0417_
*952 _0418_
*953 _0419_
*954 _0420_
*955 _0421_
*956 _0422_
*957 _0423_
*958 _0424_
*959 _0425_
*960 _0426_
*961 _0427_
*962 _0428_
*963 _0429_
*964 _0430_
*965 _0431_
*966 _0432_
*967 _0433_
*968 _0434_
*969 _0435_
*970 _0436_
*971 _0437_
*972 _0438_
*973 _0439_
*974 _0440_
*975 _0441_
*976 _0442_
*977 _0443_
*978 _0444_
*979 _0445_
*980 _0446_
*981 _0447_
*982 _0448_
*983 _0449_
*984 _0450_
*985 _0451_
*986 _0452_
*987 _0453_
*988 _0454_
*989 _0455_
*990 _0456_
*991 _0457_
*992 _0458_
*993 _0459_
*994 _0460_
*995 _0461_
*996 _0462_
*997 _0463_
*998 _0464_
*999 _0465_
*1000 _0466_
*1001 _0467_
*1002 _0468_
*1003 _0469_
*1004 _0470_
*1005 _0471_
*1006 _0472_
*1007 _0473_
*1008 _0474_
*1009 _0475_
*1010 _0476_
*1011 _0477_
*1012 _0478_
*1013 _0479_
*1014 _0480_
*1015 _0481_
*1016 _0482_
*1017 _0483_
*1018 _0484_
*1019 _0485_
*1020 _0486_
*1021 _0487_
*1022 _0488_
*1023 _0489_
*1024 _0490_
*1025 _0491_
*1026 _0492_
*1027 _0493_
*1028 _0494_
*1029 _0495_
*1030 _0496_
*1031 _0497_
*1032 _0498_
*1033 _0499_
*1034 _0500_
*1035 _0501_
*1036 _0502_
*1037 _0503_
*1038 _0504_
*1039 _0505_
*1040 _0506_
*1041 _0507_
*1042 _0508_
*1043 _0509_
*1044 _0510_
*1045 _0511_
*1046 _0512_
*1047 _0513_
*1048 _0514_
*1049 _0515_
*1050 _0516_
*1051 _0517_
*1052 _0518_
*1053 _0519_
*1054 _0520_
*1055 _0521_
*1056 _0522_
*1057 _0523_
*1058 _0524_
*1059 _0525_
*1060 _0526_
*1061 _0527_
*1062 _0528_
*1063 _0529_
*1064 _0530_
*1065 _0531_
*1066 _0532_
*1067 _0533_
*1068 _0534_
*1069 _0535_
*1070 _0536_
*1071 _0537_
*1072 _0538_
*1073 _0539_
*1074 _0540_
*1075 _0541_
*1076 _0542_
*1077 _0543_
*1078 _0544_
*1079 _0545_
*1080 _0546_
*1081 _0547_
*1082 _0548_
*1083 _0549_
*1084 _0550_
*1085 _0551_
*1086 _0552_
*1087 _0553_
*1088 _0554_
*1089 _0555_
*1090 _0556_
*1091 _0557_
*1092 _0558_
*1093 _0559_
*1094 _0560_
*1095 _0561_
*1096 _0562_
*1097 _0563_
*1098 _0564_
*1099 _0565_
*1100 _0566_
*1101 _0567_
*1102 _0568_
*1103 _0569_
*1104 _0570_
*1105 _0571_
*1106 _0572_
*1107 _0573_
*1108 _0574_
*1109 _0575_
*1110 _0576_
*1111 _0577_
*1112 _0578_
*1113 _0579_
*1114 _0580_
*1115 _0581_
*1116 _0582_
*1117 _0583_
*1118 _0584_
*1119 _0585_
*1120 _0586_
*1121 _0587_
*1122 _0588_
*1123 _0589_
*1124 _0590_
*1125 _0591_
*1126 _0592_
*1127 _0593_
*1128 _0594_
*1129 _0595_
*1130 _0596_
*1131 _0597_
*1132 _0598_
*1133 _0599_
*1134 _0600_
*1135 _0601_
*1136 _0602_
*1137 _0603_
*1138 _0604_
*1139 _0605_
*1140 _0606_
*1141 _0607_
*1142 _0608_
*1143 _0609_
*1144 _0610_
*1145 _0611_
*1146 _0612_
*1147 _0613_
*1148 _0614_
*1149 _0615_
*1150 _0616_
*1151 _0617_
*1152 _0618_
*1153 _0619_
*1154 _0620_
*1155 _0621_
*1156 _0622_
*1157 _0623_
*1158 _0624_
*1159 _0625_
*1160 _0626_
*1161 _0627_
*1162 _0628_
*1163 _0629_
*1164 _0630_
*1165 _0631_
*1166 _0632_
*1167 _0633_
*1168 _0634_
*1169 _0635_
*1170 _0636_
*1171 _0637_
*1172 _0638_
*1173 _0639_
*1174 _0640_
*1175 _0641_
*1176 _0642_
*1177 _0643_
*1178 _0644_
*1179 _0645_
*1180 _0646_
*1181 _0647_
*1182 _0648_
*1183 _0649_
*1184 _0650_
*1185 _0651_
*1186 _0652_
*1187 _0653_
*1188 _0654_
*1189 _0655_
*1190 _0656_
*1191 _0657_
*1192 _0658_
*1193 _0659_
*1194 _0660_
*1195 _0661_
*1196 _0662_
*1197 _0663_
*1198 _0664_
*1199 _0665_
*1200 _0666_
*1201 _0667_
*1202 _0668_
*1203 _0669_
*1204 _0670_
*1205 _0671_
*1206 _0672_
*1207 _0673_
*1208 _0674_
*1209 _0675_
*1210 _0676_
*1211 _0677_
*1212 _0678_
*1213 _0679_
*1214 _0680_
*1215 _0681_
*1216 _0682_
*1217 _0683_
*1218 _0684_
*1219 _0685_
*1220 _0686_
*1221 _0687_
*1222 _0688_
*1223 _0689_
*1224 _0690_
*1225 _0691_
*1226 _0692_
*1227 _0693_
*1228 _0694_
*1229 _0695_
*1230 _0696_
*1231 _0697_
*1232 _0698_
*1233 _0699_
*1234 _0700_
*1235 _0701_
*1236 _0702_
*1237 _0703_
*1238 _0704_
*1239 _0705_
*1240 _0706_
*1241 _0707_
*1242 _0708_
*1243 _0709_
*1244 _0710_
*1245 _0711_
*1246 _0712_
*1247 _0713_
*1248 _0714_
*1249 _0715_
*1250 _0716_
*1251 _0717_
*1252 _0718_
*1253 _0719_
*1254 _0720_
*1255 _0721_
*1256 _0722_
*1257 _0723_
*1258 _0724_
*1259 _0725_
*1260 _0726_
*1261 _0727_
*1262 _0728_
*1263 _0729_
*1264 _0730_
*1265 _0731_
*1266 _0732_
*1267 _0733_
*1268 _0734_
*1269 _0735_
*1270 _0736_
*1271 _0737_
*1272 _0738_
*1273 _0739_
*1274 _0740_
*1275 _0741_
*1276 _0742_
*1277 _0743_
*1278 _0744_
*1279 _0745_
*1280 _0746_
*1281 _0747_
*1282 _0748_
*1283 _0749_
*1284 _0750_
*1285 _0751_
*1286 _0752_
*1287 _0753_
*1288 _0754_
*1289 _0755_
*1290 _0756_
*1291 _0757_
*1292 _0758_
*1293 _0759_
*1294 _0760_
*1295 _0761_
*1296 _0762_
*1297 _0763_
*1298 _0764_
*1299 _0765_
*1300 _0766_
*1301 _0767_
*1302 _0768_
*1303 _0769_
*1304 _0770_
*1305 _0771_
*1306 _0772_
*1307 _0773_
*1308 _0774_
*1309 _0775_
*1310 _0776_
*1311 _0777_
*1312 _0778_
*1313 _0779_
*1314 _0780_
*1315 _0781_
*1316 _0782_
*1317 _0783_
*1318 _0784_
*1319 _0785_
*1320 _0786_
*1321 _0787_
*1322 _0788_
*1323 _0789_
*1324 _0790_
*1325 _0791_
*1326 _0792_
*1327 _0793_
*1328 _0794_
*1329 _0795_
*1330 _0796_
*1331 _0797_
*1332 _0798_
*1333 _0799_
*1334 _0800_
*1335 _0801_
*1336 _0802_
*1337 _0803_
*1338 _0804_
*1339 _0805_
*1340 _0806_
*1341 _0807_
*1342 _0808_
*1343 _0809_
*1344 _0810_
*1345 _0811_
*1346 _0812_
*1347 _0813_
*1348 _0814_
*1349 _0815_
*1350 _0816_
*1351 _0817_
*1352 _0818_
*1353 _0819_
*1354 _0820_
*1355 _0821_
*1356 _0822_
*1357 _0823_
*1358 _0824_
*1359 _0825_
*1360 _0826_
*1361 _0827_
*1362 _0828_
*1363 _0829_
*1364 _0830_
*1365 _0831_
*1366 _0832_
*1367 _0833_
*1368 _0834_
*1369 _0835_
*1370 _0836_
*1371 _0837_
*1372 _0838_
*1373 _0839_
*1374 _0840_
*1375 _0841_
*1376 _0842_
*1377 _0843_
*1378 _0844_
*1379 _0845_
*1380 _0846_
*1381 _0847_
*1382 _0848_
*1383 _0849_
*1384 _0850_
*1385 _0851_
*1386 _0852_
*1387 _0853_
*1388 _0854_
*1389 _0855_
*1390 _0856_
*1391 _0857_
*1392 _0858_
*1393 _0859_
*1394 _0860_
*1395 _0861_
*1396 _0862_
*1397 _0863_
*1398 _0864_
*1399 _0865_
*1400 _0866_
*1401 _0867_
*1402 _0868_
*1403 _0869_
*1404 _0870_
*1405 _0871_
*1406 _0872_
*1407 _0873_
*1408 _0874_
*1409 _0875_
*1410 _0876_
*1411 _0877_
*1412 _0878_
*1413 _0879_
*1414 _0880_
*1415 _0881_
*1416 _0882_
*1417 _0883_
*1418 _0884_
*1419 _0885_
*1420 _0886_
*1421 _0887_
*1422 _0888_
*1423 _0889_
*1424 _0890_
*1425 _0891_
*1426 _0892_
*1427 _0893_
*1428 _0894_
*1429 _0895_
*1430 _0896_
*1431 _0897_
*1432 _0898_
*1433 _0899_
*1434 _0900_
*1435 _0901_
*1436 _0902_
*1437 _0903_
*1438 _0904_
*1439 _0905_
*1440 _0906_
*1441 _0907_
*1442 _0908_
*1443 _0909_
*1444 _0910_
*1445 _0911_
*1446 _0912_
*1447 _0913_
*1448 _0914_
*1449 _0915_
*1450 _0916_
*1451 _0917_
*1452 _0918_
*1453 _0919_
*1454 _0920_
*1455 _0921_
*1456 _0922_
*1457 _0923_
*1458 _0924_
*1459 _0925_
*1460 _0926_
*1461 _0927_
*1462 _0928_
*1463 _0929_
*1464 _0930_
*1465 _0931_
*1466 _0932_
*1467 _0933_
*1468 _0934_
*1469 _0935_
*1470 _0936_
*1471 _0937_
*1472 _0938_
*1473 _0939_
*1474 _0940_
*1475 _0941_
*1476 _0942_
*1477 _0943_
*1478 _0944_
*1479 _0945_
*1480 _0946_
*1481 _0947_
*1482 _0948_
*1483 _0949_
*1484 _0950_
*1485 _0951_
*1486 _0952_
*1487 _0953_
*1488 _0954_
*1489 _0955_
*1490 _0956_
*1491 _0957_
*1492 _0958_
*1493 _0959_
*1494 _0960_
*1495 _0961_
*1496 _0962_
*1497 _0963_
*1498 _0964_
*1499 _0965_
*1500 _0966_
*1501 _0967_
*1502 _0968_
*1503 _0969_
*1504 _0970_
*1505 _0971_
*1506 _0972_
*1507 _0973_
*1508 _0974_
*1509 _0975_
*1510 _0976_
*1511 _0977_
*1512 _0978_
*1513 _0979_
*1514 _0980_
*1515 _0981_
*1516 _0982_
*1517 _0983_
*1518 _0984_
*1519 _0985_
*1520 _0986_
*1521 _0987_
*1522 _0988_
*1523 _0989_
*1524 _0990_
*1525 _0991_
*1526 _0992_
*1527 _0993_
*1528 _0994_
*1529 _0995_
*1530 _0996_
*1531 _0997_
*1532 _0998_
*1533 _0999_
*1534 _1000_
*1535 _1001_
*1536 _1002_
*1537 _1003_
*1538 _1004_
*1539 _1005_
*1540 _1006_
*1541 _1007_
*1542 _1008_
*1543 _1009_
*1544 _1010_
*1545 _1011_
*1546 _1012_
*1547 _1013_
*1548 _1014_
*1549 _1015_
*1550 _1016_
*1551 _1017_
*1552 _1018_
*1553 _1019_
*1554 _1020_
*1555 _1021_
*1556 _1022_
*1557 _1023_
*1558 _1024_
*1559 _1025_
*1560 _1026_
*1561 _1027_
*1562 _1028_
*1563 _1029_
*1564 _1030_
*1565 _1031_
*1566 _1032_
*1567 _1033_
*1568 _1034_
*1569 _1035_
*1570 _1036_
*1571 _1037_
*1572 _1038_
*1573 _1039_
*1574 _1040_
*1575 _1041_
*1576 _1042_
*1577 _1043_
*1578 _1044_
*1579 _1045_
*1580 _1046_
*1581 _1047_
*1582 _1048_
*1583 _1049_
*1584 _1050_
*1585 _1051_
*1586 _1052_
*1587 _1053_
*1588 _1054_
*1589 _1055_
*1590 _1056_
*1591 _1057_
*1592 _1058_
*1593 _1059_
*1594 _1060_
*1595 _1061_
*1596 _1062_
*1597 _1063_
*1598 _1064_
*1599 _1065_
*1600 _1066_
*1601 _1067_
*1602 _1068_
*1603 _1069_
*1604 _1070_
*1605 _1071_
*1606 _1072_
*1607 _1073_
*1608 _1074_
*1609 _1075_
*1610 _1076_
*1611 _1077_
*1612 _1078_
*1613 _1079_
*1614 _1080_
*1615 _1081_
*1616 _1082_
*1617 _1083_
*1618 _1084_
*1619 _1085_
*1620 _1086_
*1621 _1087_
*1622 _1088_
*1623 _1089_
*1624 _1090_
*1625 _1091_
*1626 _1092_
*1627 _1093_
*1628 _1094_
*1629 _1095_
*1630 _1096_
*1631 _1097_
*1632 _1098_
*1633 _1099_
*1634 _1100_
*1635 _1101_
*1636 _1102_
*1637 _1103_
*1638 _1104_
*1639 _1105_
*1640 _1106_
*1641 _1107_
*1642 _1108_
*1643 _1109_
*1644 _1110_
*1645 _1111_
*1646 _1112_
*1647 _1113_
*1648 _1114_
*1649 _1115_
*1650 _1116_
*1651 _1117_
*1652 _1118_
*1653 _1119_
*1654 _1120_
*1655 _1121_
*1656 _1122_
*1657 _1123_
*1658 _1124_
*1659 _1125_
*1660 _1126_
*1661 _1127_
*1662 _1128_
*1663 _1129_
*1664 _1130_
*1665 _1131_
*1666 _1132_
*1667 _1133_
*1668 _1134_
*1669 _1135_
*1670 _1136_
*1671 _1137_
*1672 _1138_
*1673 _1139_
*1674 _1140_
*1675 _1141_
*1676 _1142_
*1677 _1143_
*1678 _1144_
*1679 _1145_
*1680 _1146_
*1681 _1147_
*1682 _1148_
*1683 _1149_
*1684 _1150_
*1685 _1151_
*1686 _1152_
*1687 _1153_
*1688 _1154_
*1689 _1155_
*1690 _1156_
*1691 _1157_
*1692 _1158_
*1693 _1159_
*1694 _1160_
*1695 _1161_
*1696 _1162_
*1697 _1163_
*1698 _1164_
*1699 _1165_
*1700 _1166_
*1701 _1167_
*1702 _1168_
*1703 _1169_
*1704 _1170_
*1705 _1171_
*1706 _1172_
*1707 _1173_
*1708 _1174_
*1709 _1175_
*1710 _1176_
*1711 _1177_
*1712 _1178_
*1713 _1179_
*1714 _1180_
*1715 _1181_
*1716 _1182_
*1717 _1183_
*1718 _1184_
*1719 _1185_
*1720 _1186_
*1721 _1187_
*1722 _1188_
*1723 _1189_
*1724 _1190_
*1725 _1191_
*1726 _1192_
*1727 _1193_
*1728 _1194_
*1729 _1195_
*1730 _1196_
*1731 _1197_
*1732 _1198_
*1733 _1199_
*1734 _1200_
*1735 _1201_
*1736 _1202_
*1737 _1203_
*1738 _1204_
*1739 _1205_
*1740 _1206_
*1741 _1207_
*1742 _1208_
*1743 _1209_
*1744 _1210_
*1745 _1211_
*1746 _1212_
*1747 _1213_
*1748 _1214_
*1749 _1215_
*1750 _1216_
*1751 _1217_
*1752 _1218_
*1753 _1219_
*1754 _1220_
*1755 _1221_
*1756 _1222_
*1757 _1223_
*1758 _1224_
*1759 _1225_
*1760 _1226_
*1761 _1227_
*1762 _1228_
*1763 _1229_
*1764 _1230_
*1765 _1231_
*1766 _1232_
*1767 _1233_
*1768 _1234_
*1769 _1235_
*1770 _1236_
*1771 _1237_
*1772 _1238_
*1773 _1239_
*1774 _1240_
*1775 _1241_
*1776 _1242_
*1777 _1243_
*1778 _1244_
*1779 _1245_
*1780 _1246_
*1781 _1247_
*1782 _1248_
*1783 _1249_
*1784 _1250_
*1785 _1251_
*1786 _1252_
*1787 _1253_
*1788 _1254_
*1789 _1255_
*1790 _1256_
*1791 _1257_
*1792 _1258_
*1793 _1259_
*1794 _1260_
*1795 _1261_
*1796 _1262_
*1797 _1263_
*1798 _1264_
*1799 _1265_
*1800 _1266_
*1801 _1267_
*1802 _1268_
*1803 _1269_
*1804 _1270_
*1805 _1271_
*1806 _1272_
*1807 _1273_
*1808 _1274_
*1809 _1275_
*1810 _1276_
*1811 _1277_
*1812 _1278_
*1813 _1279_
*1814 _1280_
*1815 _1281_
*1816 _1282_
*1817 _1283_
*1818 _1284_
*1819 _1285_
*1820 _1286_
*1821 _1287_
*1822 _1288_
*1823 _1289_
*1824 _1290_
*1825 _1291_
*1826 _1292_
*1827 _1293_
*1828 _1294_
*1829 _1295_
*1830 _1296_
*1831 _1297_
*1832 _1298_
*1833 _1299_
*1834 _1300_
*1835 _1301_
*1836 _1302_
*1837 _1303_
*1838 _1304_
*1839 _1305_
*1840 _1306_
*1841 _1307_
*1842 _1308_
*1843 _1309_
*1844 _1310_
*1845 _1311_
*1846 _1312_
*1847 _1313_
*1848 _1314_
*1849 _1315_
*1850 _1316_
*1851 _1317_
*1852 _1318_
*1853 _1319_
*1854 _1320_
*1855 _1321_
*1856 _1322_
*1857 _1323_
*1858 _1324_
*1859 _1325_
*1860 _1326_
*1861 _1327_
*1862 _1328_
*1863 _1329_
*1864 _1330_
*1865 _1331_
*1866 _1332_
*1867 _1333_
*1868 _1334_
*1869 _1335_
*1870 _1336_
*1871 _1337_
*1872 _1338_
*1873 _1339_
*1874 _1340_
*1875 _1341_
*1876 _1342_
*1877 _1343_
*1878 _1344_
*1879 _1345_
*1880 _1346_
*1881 _1347_
*1882 _1348_
*1883 _1349_
*1884 _1350_
*1885 _1351_
*1886 _1352_
*1887 _1353_
*1888 _1354_
*1889 _1355_
*1890 _1356_
*1891 _1357_
*1892 _1358_
*1893 _1359_
*1894 _1360_
*1895 _1361_
*1896 _1362_
*1897 _1363_
*1898 _1364_
*1899 _1365_
*1900 _1366_
*1901 _1367_
*1902 _1368_
*1903 _1369_
*1904 _1370_
*1905 _1371_
*1906 _1372_
*1907 _1373_
*1908 _1374_
*1909 _1375_
*1910 _1376_
*1911 _1377_
*1912 _1378_
*1913 _1379_
*1914 _1380_
*1915 _1381_
*1916 _1382_
*1917 _1383_
*1918 _1384_
*1919 _1385_
*1920 _1386_
*1921 _1387_
*1922 _1388_
*1923 _1389_
*1924 _1390_
*1925 _1391_
*1926 _1392_
*1927 _1393_
*1928 _1394_
*1929 _1395_
*1930 _1396_
*1931 _1397_
*1932 _1398_
*1933 _1399_
*1934 _1400_
*1935 _1401_
*1936 _1402_
*1937 _1403_
*1938 _1404_
*1939 _1405_
*1940 _1406_
*1941 _1407_
*1942 _1408_
*1943 _1409_
*1944 _1410_
*1945 _1411_
*1946 _1412_
*1947 _1413_
*1948 _1414_
*1949 _1415_
*1950 _1416_
*1951 _1417_
*1952 _1418_
*1953 _1419_
*1954 _1420_
*1955 _1421_
*1956 _1422_
*1957 _1423_
*1958 _1424_
*1959 _1425_
*1960 _1426_
*1961 _1427_
*1962 _1428_
*1963 _1429_
*1964 _1430_
*1965 _1431_
*1966 _1432_
*1967 _1433_
*1968 _1434_
*1969 _1435_
*1970 _1436_
*1971 _1437_
*1972 _1438_
*1973 _1439_
*1974 _1440_
*1975 _1441_
*1976 _1442_
*1977 _1443_
*1978 _1444_
*1979 _1445_
*1980 _1446_
*1981 _1447_
*1982 _1448_
*1983 _1449_
*1984 _1450_
*1985 _1451_
*1986 _1452_
*1987 _1453_
*1988 _1454_
*1989 _1455_
*1990 _1456_
*1991 _1457_
*1992 _1458_
*1993 _1459_
*1994 _1460_
*1995 _1461_
*1996 _1462_
*1997 _1463_
*1998 _1464_
*1999 _1465_
*2000 _1466_
*2001 _1467_
*2002 _1468_
*2003 _1469_
*2004 _1470_
*2005 _1471_
*2006 _1472_
*2007 _1473_
*2008 _1474_
*2009 _1475_
*2010 _1476_
*2011 _1477_
*2012 _1478_
*2013 _1479_
*2014 _1480_
*2015 _1481_
*2016 _1482_
*2017 _1483_
*2018 _1484_
*2019 _1485_
*2020 _1486_
*2021 _1487_
*2022 _1488_
*2023 _1489_
*2024 _1490_
*2025 _1491_
*2026 _1492_
*2027 _1493_
*2028 _1494_
*2029 _1495_
*2030 _1496_
*2031 _1497_
*2032 _1498_
*2033 _1499_
*2034 _1500_
*2035 _1501_
*2036 _1502_
*2037 _1503_
*2038 _1504_
*2039 _1505_
*2040 _1506_
*2041 _1507_
*2042 _1508_
*2043 _1509_
*2044 _1510_
*2045 _1511_
*2046 _1512_
*2047 _1513_
*2048 _1514_
*2049 _1515_
*2050 _1516_
*2051 _1517_
*2052 _1518_
*2053 _1519_
*2054 _1520_
*2055 _1521_
*2056 _1522_
*2057 _1523_
*2058 _1524_
*2059 _1525_
*2060 _1526_
*2061 _1527_
*2062 _1528_
*2063 _1529_
*2064 _1530_
*2065 _1531_
*2066 _1532_
*2067 _1533_
*2068 _1534_
*2069 _1535_
*2070 _1536_
*2071 _1537_
*2072 _1538_
*2073 _1539_
*2074 _1540_
*2075 _1541_
*2076 _1542_
*2077 _1543_
*2078 _1544_
*2079 _1545_
*2080 _1546_
*2081 _1547_
*2082 _1548_
*2083 _1549_
*2084 _1550_
*2085 _1551_
*2086 _1552_
*2087 _1553_
*2088 _1554_
*2089 _1555_
*2090 _1556_
*2091 _1557_
*2092 _1558_
*2093 _1559_
*2094 _1560_
*2095 _1561_
*2096 _1562_
*2097 _1563_
*2098 _1564_
*2099 _1565_
*2100 _1566_
*2101 _1567_
*2102 _1568_
*2103 _1569_
*2104 _1570_
*2105 _1571_
*2106 _1572_
*2107 _1573_
*2108 _1574_
*2109 _1575_
*2110 _1576_
*2111 _1577_
*2112 _1578_
*2113 _1579_
*2114 _1580_
*2115 _1581_
*2116 _1582_
*2117 _1583_
*2118 _1584_
*2119 _1585_
*2120 _1586_
*2121 _1587_
*2122 _1588_
*2123 _1589_
*2124 _1590_
*2125 _1591_
*2126 _1592_
*2127 _1593_
*2128 _1594_
*2129 clk_div\.clock_sel
*2130 clk_div\.clock_sel_r
*2131 clk_div\.cnt\[0\]
*2132 clk_div\.cnt\[10\]
*2133 clk_div\.cnt\[11\]
*2134 clk_div\.cnt\[12\]