*SPEF "ieee 1481-1999"
*DESIGN "interconnect_outer"
*DATE "11:11:11 Fri 11 11, 1111"
*VENDOR "OpenRCX"
*PROGRAM "Parallel Extraction"
*VERSION "1.0"
*DESIGN_FLOW "NAME_SCOPE LOCAL" "PIN_CAP NONE"
*DIVIDER /
*DELIMITER :
*BUS_DELIMITER []
*T_UNIT 1 NS
*C_UNIT 1 PF
*R_UNIT 1 OHM
*L_UNIT 1 HENRY

*NAME_MAP
*1 inner_clock
*2 inner_disable
*3 inner_embed_mode
*4 inner_ext_irq
*5 inner_reset
*6 inner_wb_4_burst
*7 inner_wb_8_burst
*8 inner_wb_ack
*9 inner_wb_adr[0]
*10 inner_wb_adr[10]
*11 inner_wb_adr[11]
*12 inner_wb_adr[12]
*13 inner_wb_adr[13]
*14 inner_wb_adr[14]
*15 inner_wb_adr[15]
*16 inner_wb_adr[16]
*17 inner_wb_adr[17]
*18 inner_wb_adr[18]
*19 inner_wb_adr[19]
*20 inner_wb_adr[1]
*21 inner_wb_adr[20]
*22 inner_wb_adr[21]
*23 inner_wb_adr[22]
*24 inner_wb_adr[23]
*25 inner_wb_adr[2]
*26 inner_wb_adr[3]
*27 inner_wb_adr[4]
*28 inner_wb_adr[5]
*29 inner_wb_adr[6]
*30 inner_wb_adr[7]
*31 inner_wb_adr[8]
*32 inner_wb_adr[9]
*33 inner_wb_cyc
*34 inner_wb_err
*35 inner_wb_i_dat[0]
*36 inner_wb_i_dat[10]
*37 inner_wb_i_dat[11]
*38 inner_wb_i_dat[12]
*39 inner_wb_i_dat[13]
*40 inner_wb_i_dat[14]
*41 inner_wb_i_dat[15]
*42 inner_wb_i_dat[1]
*43 inner_wb_i_dat[2]
*44 inner_wb_i_dat[3]
*45 inner_wb_i_dat[4]
*46 inner_wb_i_dat[5]
*47 inner_wb_i_dat[6]
*48 inner_wb_i_dat[7]
*49 inner_wb_i_dat[8]
*50 inner_wb_i_dat[9]
*51 inner_wb_o_dat[0]
*52 inner_wb_o_dat[10]
*53 inner_wb_o_dat[11]
*54 inner_wb_o_dat[12]
*55 inner_wb_o_dat[13]
*56 inner_wb_o_dat[14]
*57 inner_wb_o_dat[15]
*58 inner_wb_o_dat[1]
*59 inner_wb_o_dat[2]
*60 inner_wb_o_dat[3]
*61 inner_wb_o_dat[4]
*62 inner_wb_o_dat[5]
*63 inner_wb_o_dat[6]
*64 inner_wb_o_dat[7]
*65 inner_wb_o_dat[8]
*66 inner_wb_o_dat[9]
*67 inner_wb_sel[0]
*68 inner_wb_sel[1]
*69 inner_wb_stb
*70 inner_wb_we
*71 net207
*72 net208
*73 net209
*74 net210
*75 net211
*76 net212
*77 net213
*78 net214
*79 iram1_clk
*80 iram1_csb
*81 iram1_dout[0]
*82 iram1_dout[10]
*83 iram1_dout[11]
*84 iram1_dout[12]
*85 iram1_dout[13]
*86 iram1_dout[14]
*87 iram1_dout[15]
*88 iram1_dout[16]
*89 iram1_dout[17]
*90 iram1_dout[18]
*91 iram1_dout[19]
*92 iram1_dout[1]
*93 iram1_dout[20]
*94 iram1_dout[21]
*95 iram1_dout[22]
*96 iram1_dout[23]
*97 iram1_dout[24]
*98 iram1_dout[25]
*99 iram1_dout[26]
*100 iram1_dout[27]
*101 iram1_dout[28]
*102 iram1_dout[29]
*103 iram1_dout[2]
*104 iram1_dout[30]
*105 iram1_dout[31]
*106 iram1_dout[3]
*107 iram1_dout[4]
*108 iram1_dout[5]
*109 iram1_dout[6]
*110 iram1_dout[7]
*111 iram1_dout[8]
*112 iram1_dout[9]
*113 iram_addr[0]
*114 iram_addr[1]
*115 iram_addr[2]
*116 iram_addr[3]
*117 iram_addr[4]
*118 iram_addr[5]
*119 iram_addr[6]
*120 iram_addr[7]
*121 iram_clk
*122 net413
*123 iram_i_data[0]
*124 iram_i_data[10]
*125 iram_i_data[11]
*126 iram_i_data[12]
*127 iram_i_data[13]
*128 iram_i_data[14]
*129 iram_i_data[15]
*130 net215
*131 net216
*132 net217
*133 net218
*134 iram_i_data[1]
*135 net219
*136 net220
*137 net221
*138 net222
*139 net223
*140 net224
*141 net225
*142 net226
*143 net227
*144 net228
*145 iram_i_data[2]
*146 net229
*147 net230
*148 iram_i_data[3]
*149 iram_i_data[4]
*150 iram_i_data[5]
*151 iram_i_data[6]
*152 iram_i_data[7]
*153 iram_i_data[8]
*154 iram_i_data[9]
*155 iram_o_data[0]
*156 iram_o_data[10]
*157 iram_o_data[11]
*158 iram_o_data[12]
*159 iram_o_data[13]
*160 iram_o_data[14]
*161 iram_o_data[15]
*162 iram_o_data[16]
*163 iram_o_data[17]
*164 iram_o_data[18]
*165 iram_o_data[19]
*166 iram_o_data[1]
*167 iram_o_data[20]
*168 iram_o_data[21]
*169 iram_o_data[22]
*170 iram_o_data[23]
*171 iram_o_data[24]
*172 iram_o_data[25]
*173 iram_o_data[26]
*174 iram_o_data[27]
*175 iram_o_data[28]
*176 iram_o_data[29]
*177 iram_o_data[2]
*178 iram_o_data[30]
*179 iram_o_data[31]
*180 iram_o_data[3]
*181 iram_o_data[4]
*182 iram_o_data[5]
*183 iram_o_data[6]
*184 iram_o_data[7]
*185 iram_o_data[8]
*186 iram_o_data[9]
*187 net231
*188 net232
*189 net233
*190 net234
*191 iram_we
*192 net235
*193 net236
*194 net237
*195 la_data_in[0]
*196 la_data_in[100]
*197 la_data_in[101]
*198 la_data_in[102]
*199 la_data_in[103]
*200 la_data_in[104]
*201 la_data_in[105]
*202 la_data_in[106]
*203 la_data_in[107]
*204 la_data_in[108]
*205 la_data_in[109]
*206 la_data_in[10]
*207 la_data_in[110]
*208 la_data_in[111]
*209 la_data_in[112]
*210 la_data_in[113]
*211 la_data_in[114]
*212 la_data_in[115]
*213 la_data_in[116]
*214 la_data_in[117]
*215 la_data_in[118]
*216 la_data_in[119]
*217 la_data_in[11]
*218 la_data_in[120]
*219 la_data_in[121]
*220 la_data_in[122]
*221 la_data_in[123]
*222 la_data_in[124]
*223 la_data_in[125]
*224 la_data_in[126]
*225 la_data_in[127]
*226 la_data_in[12]
*227 la_data_in[13]
*228 la_data_in[14]
*229 la_data_in[15]
*230 la_data_in[16]
*231 la_data_in[17]
*232 la_data_in[18]
*233 la_data_in[19]
*234 la_data_in[1]
*235 la_data_in[20]
*236 la_data_in[21]
*237 la_data_in[22]
*238 la_data_in[23]
*239 la_data_in[24]
*240 la_data_in[25]
*241 la_data_in[26]
*242 la_data_in[27]
*243 la_data_in[28]
*244 la_data_in[29]
*245 la_data_in[2]
*246 la_data_in[30]
*247 la_data_in[31]
*248 la_data_in[32]
*249 la_data_in[33]
*250 la_data_in[34]
*251 la_data_in[35]
*252 la_data_in[36]
*253 la_data_in[37]
*254 la_data_in[38]
*255 la_data_in[39]
*256 la_data_in[3]
*257 la_data_in[40]
*258 la_data_in[41]
*259 la_data_in[42]
*260 la_data_in[43]
*261 la_data_in[44]
*262 la_data_in[45]
*263 la_data_in[46]
*264 la_data_in[47]
*265 la_data_in[48]
*266 la_data_in[49]
*267 la_data_in[4]
*268 la_data_in[50]
*269 la_data_in[51]
*270 la_data_in[52]
*271 la_data_in[53]
*272 la_data_in[54]
*273 la_data_in[55]
*274 la_data_in[56]
*275 la_data_in[57]
*276 la_data_in[58]
*277 la_data_in[59]
*278 la_data_in[5]
*279 la_data_in[60]
*280 la_data_in[61]
*281 la_data_in[62]
*282 la_data_in[63]
*283 la_data_in[64]
*284 la_data_in[65]
*285 la_data_in[66]
*286 la_data_in[67]
*287 la_data_in[68]
*288 la_data_in[69]
*289 la_data_in[6]
*290 la_data_in[70]
*291 la_data_in[71]
*292 la_data_in[72]
*293 la_data_in[73]
*294 la_data_in[74]
*295 la_data_in[75]
*296 la_data_in[76]
*297 la_data_in[77]
*298 la_data_in[78]
*299 la_data_in[79]
*300 la_data_in[7]
*301 la_data_in[80]
*302 la_data_in[81]
*303 la_data_in[82]
*304 la_data_in[83]
*305 la_data_in[84]
*306 la_data_in[85]
*307 la_data_in[86]
*308 la_data_in[87]
*309 la_data_in[88]
*310 la_data_in[89]
*311 la_data_in[8]
*312 la_data_in[90]
*313 la_data_in[91]
*314 la_data_in[92]
*315 la_data_in[93]
*316 la_data_in[94]
*317 la_data_in[95]
*318 la_data_in[96]
*319 la_data_in[97]
*320 la_data_in[98]
*321 la_data_in[99]
*322 la_data_in[9]
*323 net238
*324 net338
*325 net339
*326 net340
*327 net341
*328 net342
*329 net343
*330 net344
*331 net345
*332 net346
*333 net347
*334 net248
*335 net348
*336 net349
*337 net350
*338 net351
*339 net352
*340 net353
*341 net354
*342 net355
*343 net356
*344 net357
*345 net249
*346 net358
*347 net359
*348 net360
*349 net361
*350 net362
*351 net363
*352 net364
*353 net365
*354 net250
*355 net251
*356 net252
*357 net253
*358 net254
*359 net255
*360 net256
*361 net257
*362 net239
*363 net258
*364 net259
*365 net260
*366 net261
*367 net262
*368 net263
*369 net264
*370 net265
*371 net266
*372 net267
*373 net240
*374 net268
*375 net269
*376 net270
*377 net271
*378 net272
*379 net273
*380 net274
*381 net275
*382 net276
*383 net277
*384 net241
*385 net278
*386 net279
*387 net280
*388 net281
*389 net282
*390 net283
*391 net284
*392 net285
*393 net286
*394 net287
*395 net242
*396 net288
*397 net289
*398 net290
*399 net291
*400 net292
*401 net293
*402 net294
*403 net295
*404 net296
*405 net297
*406 net243
*407 net298
*408 net299
*409 net300
*410 net301
*411 net302
*412 net303
*413 net304
*414 net305
*415 net306
*416 net307
*417 net244
*418 net308
*419 net309
*420 net310
*421 net311
*422 net312
*423 net313
*424 net314
*425 net315
*426 net316
*427 net317
*428 net245
*429 net318
*430 net319
*431 net320
*432 net321
*433 net322
*434 net323
*435 net324
*436 net325
*437 net326
*438 net327
*439 net246
*440 net328
*441 net329
*442 net330
*443 net331
*444 net332
*445 net333
*446 net334
*447 net335
*448 net336
*449 net337
*450 net247
*451 la_oenb[0]
*452 la_oenb[100]
*453 la_oenb[101]
*454 la_oenb[102]
*455 la_oenb[103]
*456 la_oenb[104]
*457 la_oenb[105]
*458 la_oenb[106]
*459 la_oenb[107]
*460 la_oenb[108]
*461 la_oenb[109]
*462 la_oenb[10]
*463 la_oenb[110]
*464 la_oenb[111]
*465 la_oenb[112]
*466 la_oenb[113]
*467 la_oenb[114]
*468 la_oenb[115]
*469 la_oenb[116]
*470 la_oenb[117]
*471 la_oenb[118]
*472 la_oenb[119]
*473 la_oenb[11]
*474 la_oenb[120]
*475 la_oenb[121]
*476 la_oenb[122]
*477 la_oenb[123]
*478 la_oenb[124]
*479 la_oenb[125]
*480 la_oenb[126]
*481 la_oenb[127]
*482 la_oenb[12]
*483 la_oenb[13]
*484 la_oenb[14]
*485 la_oenb[15]
*486 la_oenb[16]
*487 la_oenb[17]
*488 la_oenb[18]
*489 la_oenb[19]
*490 la_oenb[1]
*491 la_oenb[20]
*492 la_oenb[21]
*493 la_oenb[22]
*494 la_oenb[23]
*495 la_oenb[24]
*496 la_oenb[25]
*497 la_oenb[26]
*498 la_oenb[27]
*499 la_oenb[28]
*500 la_oenb[29]
*501 la_oenb[2]
*502 la_oenb[30]
*503 la_oenb[31]
*504 la_oenb[32]
*505 la_oenb[33]
*506 la_oenb[34]
*507 la_oenb[35]
*508 la_oenb[36]
*509 la_oenb[37]
*510 la_oenb[38]
*511 la_oenb[39]
*512 la_oenb[3]
*513 la_oenb[40]
*514 la_oenb[41]
*515 la_oenb[42]
*516 la_oenb[43]
*517 la_oenb[44]
*518 la_oenb[45]
*519 la_oenb[46]
*520 la_oenb[47]
*521 la_oenb[48]
*522 la_oenb[49]
*523 la_oenb[4]
*524 la_oenb[50]
*525 la_oenb[51]
*526 la_oenb[52]
*527 la_oenb[53]
*528 la_oenb[54]
*529 la_oenb[55]
*530 la_oenb[56]
*531 la_oenb[57]
*532 la_oenb[58]
*533 la_oenb[59]
*534 la_oenb[5]
*535 la_oenb[60]
*536 la_oenb[61]
*537 la_oenb[62]
*538 la_oenb[63]
*539 la_oenb[64]
*540 la_oenb[65]
*541 la_oenb[66]
*542 la_oenb[67]
*543 la_oenb[68]
*544 la_oenb[69]
*545 la_oenb[6]
*546 la_oenb[70]
*547 la_oenb[71]
*548 la_oenb[72]
*549 la_oenb[73]
*550 la_oenb[74]
*551 la_oenb[75]
*552 la_oenb[76]
*553 la_oenb[77]
*554 la_oenb[78]
*555 la_oenb[79]
*556 la_oenb[7]
*557 la_oenb[80]
*558 la_oenb[81]
*559 la_oenb[82]
*560 la_oenb[83]
*561 la_oenb[84]
*562 la_oenb[85]
*563 la_oenb[86]
*564 la_oenb[87]
*565 la_oenb[88]
*566 la_oenb[89]
*567 la_oenb[8]
*568 la_oenb[90]
*569 la_oenb[91]
*570 la_oenb[92]
*571 la_oenb[93]
*572 la_oenb[94]
*573 la_oenb[95]
*574 la_oenb[96]
*575 la_oenb[97]
*576 la_oenb[98]
*577 la_oenb[99]
*578 la_oenb[9]
*579 m_io_in[0]
*580 m_io_in[10]
*581 m_io_in[11]
*582 m_io_in[12]
*583 m_io_in[13]
*584 m_io_in[14]
*585 m_io_in[15]
*586 m_io_in[16]
*587 m_io_in[17]
*588 m_io_in[18]
*589 m_io_in[19]
*590 m_io_in[1]
*591 m_io_in[20]
*592 m_io_in[21]
*593 m_io_in[22]
*594 m_io_in[23]
*595 m_io_in[24]
*596 m_io_in[25]
*597 m_io_in[26]
*598 m_io_in[27]
*599 m_io_in[28]
*600 m_io_in[29]
*601 m_io_in[2]
*602 m_io_in[30]
*603 m_io_in[31]
*604 m_io_in[32]
*605 m_io_in[33]
*606 m_io_in[34]
*607 m_io_in[35]
*608 m_io_in[36]
*609 m_io_in[37]
*610 m_io_in[3]
*611 m_io_in[4]
*612 m_io_in[5]
*613 m_io_in[6]
*614 m_io_in[7]
*615 m_io_in[8]
*616 m_io_in[9]
*617 m_io_oeb[0]
*618 m_io_oeb[10]
*619 m_io_oeb[11]
*620 m_io_oeb[12]
*621 m_io_oeb[13]
*622 m_io_oeb[14]
*623 m_io_oeb[15]
*624 m_io_oeb[16]
*625 m_io_oeb[17]
*626 m_io_oeb[18]
*627 m_io_oeb[19]
*628 m_io_oeb[1]
*629 m_io_oeb[20]
*630 m_io_oeb[21]
*631 m_io_oeb[22]
*632 m_io_oeb[23]
*633 m_io_oeb[24]
*634 m_io_oeb[25]
*635 net414
*636 net415
*637 net368
*638 net369
*639 m_io_oeb[2]
*640 net416
*641 net417
*642 net418
*643 net419
*644 net420
*645 net421
*646 net370
*647 net371
*648 m_io_oeb[3]
*649 m_io_oeb[4]
*650 m_io_oeb[5]
*651 m_io_oeb[6]
*652 m_io_oeb[7]
*653 net366
*654 net367
*655 m_io_out[0]
*656 m_io_out[10]
*657 m_io_out[11]
*658 m_io_out[12]
*659 m_io_out[13]
*660 m_io_out[14]
*661 m_io_out[15]
*662 m_io_out[16]
*663 m_io_out[17]
*664 m_io_out[18]
*665 m_io_out[19]
*666 m_io_out[1]
*667 m_io_out[20]
*668 m_io_out[21]
*669 m_io_out[22]
*670 m_io_out[23]
*671 m_io_out[24]
*672 m_io_out[25]
*673 net372
*674 net373
*675 m_io_out[28]
*676 m_io_out[29]
*677 m_io_out[2]
*678 net374
*679 net375
*680 net376
*681 net377
*682 net378
*683 net379
*684 m_io_out[36]
*685 net422
*686 m_io_out[3]
*687 m_io_out[4]
*688 m_io_out[5]
*689 m_io_out[6]
*690 m_io_out[7]
*691 m_io_out[8]
*692 m_io_out[9]
*693 net380
*694 mgt_wb_adr_i[0]
*695 mgt_wb_adr_i[10]
*696 mgt_wb_adr_i[11]
*697 mgt_wb_adr_i[12]
*698 mgt_wb_adr_i[13]
*699 mgt_wb_adr_i[14]
*700 mgt_wb_adr_i[15]
*701 mgt_wb_adr_i[16]
*702 mgt_wb_adr_i[17]
*703 mgt_wb_adr_i[18]
*704 mgt_wb_adr_i[19]
*705 mgt_wb_adr_i[1]
*706 mgt_wb_adr_i[20]
*707 mgt_wb_adr_i[21]
*708 mgt_wb_adr_i[22]
*709 mgt_wb_adr_i[23]
*710 mgt_wb_adr_i[24]
*711 mgt_wb_adr_i[25]
*712 mgt_wb_adr_i[26]
*713 mgt_wb_adr_i[27]
*714 mgt_wb_adr_i[28]
*715 mgt_wb_adr_i[29]
*716 mgt_wb_adr_i[2]
*717 mgt_wb_adr_i[30]
*718 mgt_wb_adr_i[31]
*719 mgt_wb_adr_i[3]
*720 mgt_wb_adr_i[4]
*721 mgt_wb_adr_i[5]
*722 mgt_wb_adr_i[6]
*723 mgt_wb_adr_i[7]
*724 mgt_wb_adr_i[8]
*725 mgt_wb_adr_i[9]
*726 mgt_wb_clk_i
*727 mgt_wb_cyc_i
*728 mgt_wb_dat_i[0]
*729 mgt_wb_dat_i[10]
*730 mgt_wb_dat_i[11]
*731 mgt_wb_dat_i[12]
*732 mgt_wb_dat_i[13]
*733 mgt_wb_dat_i[14]
*734 mgt_wb_dat_i[15]
*735 mgt_wb_dat_i[16]
*736 mgt_wb_dat_i[17]
*737 mgt_wb_dat_i[18]
*738 mgt_wb_dat_i[19]
*739 mgt_wb_dat_i[1]
*740 mgt_wb_dat_i[20]
*741 mgt_wb_dat_i[21]
*742 mgt_wb_dat_i[22]
*743 mgt_wb_dat_i[23]
*744 mgt_wb_dat_i[24]
*745 mgt_wb_dat_i[25]
*746 mgt_wb_dat_i[26]
*747 mgt_wb_dat_i[27]
*748 mgt_wb_dat_i[28]
*749 mgt_wb_dat_i[29]
*750 mgt_wb_dat_i[2]
*751 mgt_wb_dat_i[30]
*752 mgt_wb_dat_i[31]
*753 mgt_wb_dat_i[3]
*754 mgt_wb_dat_i[4]
*755 mgt_wb_dat_i[5]
*756 mgt_wb_dat_i[6]
*757 mgt_wb_dat_i[7]
*758 mgt_wb_dat_i[8]
*759 mgt_wb_dat_i[9]
*760 net381
*761 net391
*762 net392
*763 net393
*764 net394
*765 net395
*766 net396
*767 net397
*768 net398
*769 net399
*770 net400
*771 net382
*772 net401
*773 net402
*774 net403
*775 net404
*776 net405
*777 net406
*778 net407
*779 net408
*780 net409
*781 net410
*782 net383
*783 net411
*784 net412
*785 net384
*786 net385
*787 net386
*788 net387
*789 net388
*790 net389
*791 net390
*792 mgt_wb_rst_i
*793 mgt_wb_sel_i[0]
*794 mgt_wb_sel_i[1]
*795 mgt_wb_sel_i[2]
*796 mgt_wb_sel_i[3]
*797 mgt_wb_stb_i
*798 mgt_wb_we_i
*799 user_clock2
*802 _0000_
*803 _0001_
*804 _0002_
*805 _0003_
*806 _0004_
*807 _0005_
*808 _0006_
*809 _0007_
*810 _0008_
*811 _0009_
*812 _0010_
*813 _0011_
*814 _0012_
*815 _0013_
*816 _0014_
*817 _0015_
*818 _0016_
*819 _0017_
*820 _0018_
*821 _0019_
*822 _0020_
*823 _0021_
*824 _0022_
*825 _0023_
*826 _0024_
*827 _0025_
*828 _0026_
*829 _0027_
*830 _0028_
*831 _0029_
*832 _0030_
*833 _0031_
*834 _0032_
*835 _0033_
*836 _0034_
*837 _0035_
*838 _0036_
*839 _0037_
*840 _0038_
*841 _0039_
*842 _0040_
*843 _0041_
*844 _0042_
*845 _0043_
*846 _0044_
*847 _0045_
*848 _0046_
*849 _0047_
*850 _0048_
*851 _0049_
*852 _0050_
*853 _0051_
*854 _0052_
*855 _0053_
*856 _0054_
*857 _0055_
*858 _0056_
*859 _0057_
*860 _0058_
*861 _0059_
*862 _0060_
*863 _0061_
*864 _0062_
*865 _0063_
*866 _0064_
*867 _0065_
*868 _0066_
*869 _0067_
*870 _0068_
*871 _0069_
*872 _0070_
*873 _0071_
*874 _0072_
*875 _0073_
*876 _0074_
*877 _0075_
*878 _0076_
*879 _0077_
*880 _0078_
*881 _0079_
*882 _0080_
*883 _0081_
*884 _0082_
*885 _0083_
*886 _0084_
*887 _0085_
*888 _0086_
*889 _0087_
*890 _0088_
*891 _0089_
*892 _0090_
*893 _0091_
*894 _0092_
*895 _0093_
*896 _0094_
*897 _0095_
*898 _0096_
*899 _0097_
*900 _0098_
*901 _0099_
*902 _0100_
*903 _0101_
*904 _0102_
*905 _0103_
*906 _0104_
*907 _0105_
*908 _0106_
*909 _0107_
*910 _0108_
*911 _0109_
*912 _0110_
*913 _0111_
*914 _0112_
*915 _0113_
*916 _0114_
*917 _0115_
*918 _0116_
*919 _0117_
*920 _0118_
*921 _0119_
*922 _0120_
*923 _0121_
*924 _0122_
*925 _0123_
*926 _0124_
*927 _0125_
*928 _0126_
*929 _0127_
*930 _0128_
*931 _0129_
*932 _0130_
*933 _0131_
*934 _0132_
*935 _0133_
*936 _0134_
*937 _0135_
*938 _0136_
*939 _0137_
*940 _0138_
*941 _0139_
*942 _0140_
*943 _0141_
*944 _0142_
*945 _0143_
*946 _0144_
*947 _0145_
*948 _0146_
*949 _0147_
*950 _0148_
*951 _0149_
*952 _0150_
*953 _0151_
*954 _0152_
*955 _0153_
*956 _0154_
*957 _0155_
*958 _0156_
*959 _0157_
*960 _0158_
*961 _0159_
*962 _0160_
*963 _0161_
*964 _0162_
*965 _0163_
*966 _0164_
*967 _0165_
*968 _0166_
*969 _0167_
*970 _0168_
*971 _0169_
*972 _0170_
*973 _0171_
*974 _0172_
*975 _0173_
*976 _0174_
*977 _0175_
*978 _0176_
*979 _0177_
*980 _0178_
*981 _0179_
*982 _0180_
*983 _0181_
*984 _0182_
*985 _0183_
*986 _0184_
*987 _0185_
*988 _0186_
*989 _0187_
*990 _0188_
*991 _0189_
*992 _0190_
*993 _0191_
*994 _0192_
*995 _0193_
*996 _0194_
*997 _0195_
*998 _0196_
*999 _0197_
*1000 _0198_
*1001 _0199_
*1002 _0200_
*1003 _0201_
*1004 _0202_
*1005 _0203_
*1006 _0204_
*1007 _0205_
*1008 _0206_
*1009 _0207_
*1010 _0208_
*1011 _0209_
*1012 _0210_
*1013 _0211_
*1014 _0212_
*1015 _0213_
*1016 _0214_
*1017 _0215_
*1018 _0216_
*1019 _0217_
*1020 _0218_
*1021 _0219_
*1022 _0220_
*1023 _0221_
*1024 _0222_
*1025 _0223_
*1026 _0224_
*1027 _0225_
*1028 _0226_
*1029 _0227_
*1030 _0228_
*1031 _0229_
*1032 _0230_
*1033 _0231_
*1034 _0232_
*1035 _0233_
*1036 _0234_
*1037 _0235_
*1038 _0236_
*1039 _0237_
*1040 _0238_
*1041 _0239_
*1042 _0240_
*1043 _0241_
*1044 _0242_
*1045 _0243_
*1046 _0244_
*1047 _0245_
*1048 _0246_
*1049 _0247_
*1050 _0248_
*1051 _0249_
*1052 _0250_
*1053 _0251_
*1054 _0252_
*1055 _0253_
*1056 _0254_
*1057 _0255_
*1058 _0256_
*1059 _0257_
*1060 _0258_
*1061 _0259_
*1062 _0260_
*1063 _0261_
*1064 _0262_
*1065 _0263_
*1066 _0264_
*1067 _0265_
*1068 _0266_
*1069 _0267_
*1070 _0268_
*1071 _0269_
*1072 _0270_
*1073 _0271_
*1074 _0272_
*1075 _0273_
*1076 _0274_
*1077 _0275_
*1078 _0276_
*1079 _0277_
*1080 _0278_
*1081 _0279_
*1082 _0280_
*1083 _0281_
*1084 _0282_
*1085 _0283_
*1086 _0284_
*1087 _0285_
*1088 _0286_
*1089 _0287_
*1090 _0288_
*1091 _0289_
*1092 _0290_
*1093 _0291_
*1094 _0292_
*1095 _0293_
*1096 _0294_
*1097 _0295_
*1098 _0296_
*1099 _0297_
*1100 _0298_
*1101 _0299_
*1102 _0300_
*1103 _0301_
*1104 _0302_
*1105 _0303_
*1106 _0304_
*1107 _0305_
*1108 _0306_
*1109 _0307_
*1110 _0308_
*1111 _0309_
*1112 _0310_
*1113 _0311_
*1114 _0312_
*1115 _0313_
*1116 _0314_
*1117 _0315_
*1118 _0316_
*1119 _0317_
*1120 _0318_
*1121 _0319_
*1122 _0320_
*1123 _0321_
*1124 _0322_
*1125 _0323_
*1126 _0324_
*1127 _0325_
*1128 _0326_
*1129 _0327_
*1130 _0328_
*1131 _0329_
*1132 _0330_
*1133 _0331_
*1134 _0332_
*1135 _0333_
*1136 _0334_
*1137 _0335_
*1138 _0336_
*1139 _0337_
*1140 _0338_
*1141 _0339_
*1142 _0340_
*1143 _0341_
*1144 _0342_
*1145 _0343_
*1146 _0344_
*1147 _0345_
*1148 _0346_
*1149 _0347_
*1150 _0348_
*1151 _0349_
*1152 _0350_
*1153 _0351_
*1154 _0352_
*1155 _0353_
*1156 _0354_
*1157 _0355_
*1158 _0356_
*1159 _0357_
*1160 _0358_
*1161 _0359_
*1162 _0360_
*1163 _0361_
*1164 _0362_
*1165 _0363_
*1166 _0364_
*1167 _0365_
*1168 _0366_
*1169 _0367_
*1170 _0368_
*1171 _0369_
*1172 _0370_
*1173 _0371_
*1174 _0372_
*1175 _0373_
*1176 _0374_
*1177 _0375_
*1178 _0376_
*1179 _0377_
*1180 _0378_
*1181 _0379_
*1182 _0380_
*1183 _0381_
*1184 _0382_
*1185 _0383_
*1186 _0384_
*1187 _0385_
*1188 _0386_
*1189 _0387_
*1190 _0388_
*1191 _0389_
*1192 _0390_
*1193 _0391_
*1194 _0392_
*1195 _0393_
*1196 _0394_
*1197 _0395_
*1198 _0396_
*1199 _0397_
*1200 _0398_
*1201 _0399_
*1202 _0400_
*1203 _0401_
*1204 _0402_
*1205 _0403_
*1206 _0404_
*1207 _0405_
*1208 _0406_
*1209 _0407_
*1210 _0408_
*1211 _0409_
*1212 _0410_
*1213 _0411_
*1214 _0412_
*1215 _0413_
*1216 _0414_
*1217 _0415_
*1218 _0416_
*1219 _0417_
*1220 _0418_
*1221 _0419_
*1222 _0420_
*1223 _0421_
*1224 _0422_
*1225 _0423_
*1226 _0424_
*1227 _0425_
*1228 _0426_
*1229 _0427_
*1230 _0428_
*1231 _0429_
*1232 _0430_
*1233 _0431_
*1234 _0432_
*1235 _0433_
*1236 _0434_
*1237 _0435_
*1238 _0436_
*1239 _0437_
*1240 _0438_
*1241 _0439_
*1242 _0440_
*1243 _0441_
*1244 _0442_
*1245 _0443_
*1246 _0444_
*1247 _0445_
*1248 _0446_
*1249 _0447_
*1250 _0448_
*1251 _0449_
*1252 _0450_
*1253 _0451_
*1254 _0452_
*1255 _0453_
*1256 _0454_
*1257 _0455_
*1258 _0456_
*1259 _0457_
*1260 _0458_
*1261 _0459_
*1262 _0460_
*1263 _0461_
*1264 _0462_
*1265 _0463_
*1266 _0464_
*1267 _0465_
*1268 _0466_
*1269 _0467_
*1270 _0468_
*1271 _0469_
*1272 _0470_
*1273 _0471_
*1274 _0472_
*1275 _0473_
*1276 _0474_
*1277 _0475_
*1278 _0476_
*1279 _0477_
*1280 _0478_
*1281 _0479_
*1282 _0480_
*1283 _0481_
*1284 _0482_
*1285 _0483_
*1286 _0484_
*1287 _0485_
*1288 _0486_
*1289 _0487_
*1290 _0488_
*1291 _0489_
*1292 _0490_
*1293 _0491_
*1294 _0492_
*1295 _0493_
*1296 _0494_
*1297 _0495_
*1298 _0496_
*1299 _0497_
*1300 _0498_
*1301 _0499_
*1302 _0500_
*1303 _0501_
*1304 _0502_
*1305 _0503_
*1306 _0504_
*1307 _0505_
*1308 _0506_
*1309 _0507_
*1310 _0508_
*1311 _0509_
*1312 _0510_
*1313 _0511_
*1314 _0512_
*1315 _0513_
*1316 _0514_
*1317 _0515_
*1318 _0516_
*1319 _0517_
*1320 _0518_
*1321 _0519_
*1322 _0520_
*1323 _0521_
*1324 _0522_
*1325 _0523_
*1326 _0524_
*1327 _0525_
*1328 _0526_
*1329 _0527_
*1330 _0528_
*1331 _0529_
*1332 _0530_
*1333 _0531_
*1334 _0532_
*1335 _0533_
*1336 _0534_
*1337 _0535_
*1338 _0536_
*1339 _0537_
*1340 _0538_
*1341 _0539_
*1342 _0540_
*1343 _0541_
*1344 _0542_
*1345 _0543_
*1346 _0544_
*1347 _0545_
*1348 _0546_
*1349 _0547_
*1350 _0548_
*1351 _0549_
*1352 _0550_
*1353 _0551_
*1354 _0552_
*1355 _0553_
*1356 _0554_
*1357 _0555_
*1358 _0556_
*1359 _0557_
*1360 _0558_
*1361 _0559_
*1362 _0560_
*1363 _0561_
*1364 _0562_
*1365 _0563_
*1366 _0564_
*1367 _0565_
*1368 _0566_
*1369 _0567_
*1370 _0568_
*1371 _0569_
*1372 _0570_
*1373 _0571_
*1374 _0572_
*1375 _0573_
*1376 _0574_
*1377 _0575_
*1378 _0576_
*1379 _0577_
*1380 _0578_
*1381 _0579_
*1382 _0580_
*1383 _0581_
*1384 _0582_
*1385 _0583_
*1386 _0584_
*1387 _0585_
*1388 _0586_
*1389 _0587_
*1390 _0588_
*1391 _0589_
*1392 _0590_
*1393 _0591_
*1394 _0592_
*1395 _0593_
*1396 _0594_
*1397 _0595_
*1398 _0596_
*1399 _0597_
*1400 _0598_
*1401 _0599_
*1402 _0600_
*1403 _0601_
*1404 _0602_
*1405 _0603_
*1406 _0604_
*1407 _0605_
*1408 _0606_
*1409 _0607_
*1410 _0608_
*1411 _0609_
*1412 _0610_
*1413 _0611_
*1414 _0612_
*1415 _0613_
*1416 _0614_
*1417 _0615_
*1418 _0616_
*1419 _0617_
*1420 _0618_
*1421 _0619_
*1422 _0620_
*1423 _0621_
*1424 _0622_
*1425 _0623_
*1426 _0624_
*1427 _0625_
*1428 _0626_
*1429 _0627_
*1430 _0628_
*1431 _0629_
*1432 _0630_
*1433 _0631_
*1434 _0632_
*1435 _0633_
*1436 _0634_
*1437 _0635_
*1438 _0636_
*1439 _0637_
*1440 _0638_
*1441 _0639_
*1442 _0640_
*1443 _0641_
*1444 _0642_
*1445 _0643_
*1446 _0644_
*1447 _0645_
*1448 _0646_
*1449 _0647_
*1450 _0648_
*1451 _0649_
*1452 _0650_
*1453 _0651_
*1454 _0652_
*1455 _0653_
*1456 _0654_
*1457 _0655_
*1458 _0656_
*1459 _0657_
*1460 _0658_
*1461 _0659_
*1462 _0660_
*1463 _0661_
*1464 _0662_
*1465 _0663_
*1466 _0664_
*1467 _0665_
*1468 _0666_
*1469 _0667_
*1470 _0668_
*1471 _0669_
*1472 _0670_
*1473 _0671_
*1474 _0672_
*1475 _0673_
*1476 _0674_
*1477 _0675_
*1478 _0676_
*1479 _0677_
*1480 _0678_
*1481 _0679_
*1482 _0680_
*1483 _0681_
*1484 _0682_
*1485 _0683_
*1486 _0684_
*1487 _0685_
*1488 _0686_
*1489 _0687_
*1490 _0688_
*1491 _0689_
*1492 _0690_
*1493 _0691_
*1494 _0692_
*1495 _0693_
*1496 _0694_
*1497 _0695_
*1498 _0696_
*1499 _0697_
*1500 _0698_
*1501 _0699_
*1502 _0700_
*1503 _0701_
*1504 _0702_
*1505 _0703_
*1506 _0704_
*1507 _0705_
*1508 _0706_
*1509 _0707_
*1510 _0708_
*1511 _0709_
*1512 _0710_
*1513 _0711_
*1514 _0712_
*1515 _0713_
*1516 _0714_
*1517 _0715_
*1518 _0716_
*1519 _0717_
*1520 _0718_
*1521 _0719_
*1522 _0720_
*1523 _0721_
*1524 _0722_
*1525 _0723_
*1526 _0724_
*1527 _0725_
*1528 _0726_
*1529 _0727_
*1530 _0728_
*1531 _0729_
*1532 _0730_
*1533 _0731_
*1534 _0732_
*1535 _0733_
*1536 _0734_
*1537 _0735_
*1538 _0736_
*1539 _0737_
*1540 _0738_
*1541 _0739_
*1542 _0740_
*1543 _0741_
*1544 _0742_
*1545 _0743_
*1546 _0744_
*1547 _0745_
*1548 _0746_
*1549 _0747_
*1550 _0748_
*1551 _0749_
*1552 _0750_
*1553 _0751_
*1554 _0752_
*1555 _0753_
*1556 _0754_
*1557 _0755_
*1558 _0756_
*1559 _0757_
*1560 _0758_
*1561 _0759_
*1562 _0760_
*1563 _0761_
*1564 _0762_
*1565 _0763_
*1566 _0764_
*1567 _0765_
*1568 _0766_
*1569 _0767_
*1570 _0768_
*1571 _0769_
*1572 _0770_
*1573 _0771_
*1574 _0772_
*1575 _0773_
*1576 _0774_
*1577 _0775_
*1578 _0776_
*1579 _0777_
*1580 _0778_
*1581 _0779_
*1582 _0780_
*1583 _0781_
*1584 _0782_
*1585 _0783_
*1586 _0784_
*1587 _0785_
*1588 _0786_
*1589 _0787_
*1590 _0788_
*1591 _0789_
*1592 _0790_
*1593 _0791_
*1594 _0792_
*1595 _0793_
*1596 _0794_
*1597 _0795_
*1598 _0796_
*1599 _0797_
*1600 _0798_
*1601 _0799_
*1602 _0800_
*1603 _0801_
*1604 _0802_
*1605 _0803_
*1606 _0804_
*1607 _0805_
*1608 _0806_
*1609 _0807_
*1610 _0808_
*1611 _0809_
*1612 _0810_
*1613 _0811_
*1614 _0812_
*1615 _0813_
*1616 _0814_
*1617 _0815_
*1618 _0816_
*1619 _0817_
*1620 _0818_
*1621 _0819_
*1622 _0820_
*1623 _0821_
*1624 _0822_
*1625 _0823_
*1626 _0824_
*1627 _0825_
*1628 _0826_
*1629 _0827_
*1630 _0828_
*1631 _0829_
*1632 _0830_
*1633 _0831_
*1634 _0832_
*1635 _0833_
*1636 _0834_
*1637 _0835_
*1638 _0836_
*1639 _0837_
*1640 _0838_
*1641 _0839_
*1642 _0840_
*1643 _0841_
*1644 _0842_
*1645 _0843_
*1646 _0844_
*1647 _0845_
*1648 _0846_
*1649 _0847_
*1650 _0848_
*1651 _0849_
*1652 _0850_
*1653 _0851_
*1654 _0852_
*1655 _0853_
*1656 _0854_
*1657 _0855_
*1658 _0856_
*1659 _0857_
*1660 _0858_
*1661 _0859_
*1662 _0860_
*1663 _0861_
*1664 _0862_
*1665 _0863_
*1666 _0864_
*1667 _0865_
*1668 _0866_
*1669 _0867_
*1670 _0868_
*1671 _0869_
*1672 _0870_
*1673 _0871_
*1674 _0872_
*1675 _0873_
*1676 _0874_
*1677 _0875_
*1678 _0876_
*1679 _0877_
*1680 _0878_
*1681 _0879_
*1682 _0880_
*1683 _0881_
*1684 _0882_
*1685 _0883_
*1686 _0884_
*1687 _0885_
*1688 _0886_
*1689 _0887_
*1690 _0888_
*1691 _0889_
*1692 _0890_
*1693 _0891_
*1694 _0892_
*1695 _0893_
*1696 _0894_
*1697 _0895_
*1698 _0896_
*1699 _0897_
*1700 _0898_
*1701 _0899_
*1702 _0900_
*1703 _0901_
*1704 _0902_
*1705 _0903_
*1706 _0904_
*1707 _0905_
*1708 _0906_
*1709 _0907_
*1710 _0908_
*1711 _0909_
*1712 _0910_
*1713 _0911_
*1714 _0912_
*1715 _0913_
*1716 _0914_
*1717 _0915_
*1718 _0916_
*1719 _0917_
*1720 _0918_
*1721 _0919_
*1722 _0920_
*1723 _0921_
*1724 _0922_
*1725 _0923_
*1726 _0924_
*1727 _0925_
*1728 _0926_
*1729 _0927_
*1730 _0928_
*1731 _0929_
*1732 _0930_
*1733 _0931_
*1734 _0932_
*1735 _0933_
*1736 _0934_
*1737 _0935_
*1738 _0936_
*1739 _0937_
*1740 _0938_
*1741 _0939_
*1742 _0940_
*1743 _0941_
*1744 _0942_
*1745 _0943_
*1746 _0944_
*1747 _0945_
*1748 _0946_
*1749 _0947_
*1750 _0948_
*1751 _0949_
*1752 _0950_
*1753 _0951_
*1754 _0952_
*1755 _0953_
*1756 _0954_
*1757 _0955_
*1758 _0956_
*1759 _0957_
*1760 _0958_
*1761 _0959_
*1762 _0960_
*1763 _0961_
*1764 _0962_
*1765 _0963_
*1766 _0964_
*1767 _0965_
*1768 _0966_
*1769 _0967_
*1770 _0968_
*1771 _0969_
*1772 _0970_
*1773 _0971_
*1774 _0972_
*1775 _0973_
*1776 _0974_
*1777 _0975_
*1778 _0976_
*1779 _0977_
*1780 _0978_
*1781 _0979_
*1782 _0980_
*1783 _0981_
*1784 _0982_
*1785 _0983_
*1786 _0984_
*1787 _0985_
*1788 _0986_
*1789 _0987_
*1790 _0988_
*1791 _0989_
*1792 _0990_
*1793 _0991_
*1794 _0992_
*1795 _0993_
*1796 _0994_
*1797 _0995_
*1798 _0996_
*1799 _0997_
*1800 _0998_
*1801 _0999_
*1802 _1000_
*1803 _1001_
*1804 _1002_
*1805 _1003_
*1806 _1004_
*1807 _1005_
*1808 _1006_
*1809 _1007_
*1810 _1008_
*1811 _1009_
*1812 _1010_
*1813 _1011_
*1814 _1012_
*1815 _1013_
*1816 _1014_
*1817 _1015_
*1818 _1016_
*1819 _1017_
*1820 _1018_
*1821 _1019_
*1822 _1020_
*1823 _1021_
*1824 _1022_
*1825 _1023_
*1826 _1024_
*1827 _1025_
*1828 _1026_
*1829 _1027_
*1830 _1028_
*1831 _1029_
*1832 _1030_
*1833 _1031_
*1834 _1032_
*1835 _1033_
*1836 _1034_
*1837 _1035_
*1838 _1036_
*1839 _1037_
*1840 _1038_
*1841 _1039_
*1842 _1040_
*1843 _1041_
*1844 _1042_
*1845 _1043_
*1846 _1044_
*1847 _1045_
*1848 _1046_
*1849 _1047_
*1850 _1048_
*1851 _1049_
*1852 _1050_
*1853 _1051_
*1854 _1052_
*1855 _1053_
*1856 _1054_
*1857 _1055_
*1858 _1056_
*1859 _1057_
*1860 _1058_
*1861 _1059_
*1862 _1060_
*1863 _1061_
*1864 _1062_
*1865 _1063_
*1866 _1064_
*1867 _1065_
*1868 _1066_
*1869 _1067_
*1870 _1068_
*1871 _1069_
*1872 _1070_
*1873 _1071_
*1874 _1072_
*1875 _1073_
*1876 _1074_
*1877 _1075_
*1878 _1076_
*1879 _1077_
*1880 _1078_
*1881 _1079_
*1882 _1080_
*1883 _1081_
*1884 _1082_
*1885 _1083_
*1886 _1084_
*1887 _1085_
*1888 _1086_
*1889 _1087_
*1890 _1088_
*1891 _1089_
*1892 _1090_
*1893 _1091_
*1894 _1092_
*1895 _1093_
*1896 _1094_
*1897 _1095_
*1898 _1096_
*1899 _1097_
*1900 _1098_
*1901 _1099_
*1902 _1100_
*1903 _1101_
*1904 _1102_
*1905 _1103_
*1906 _1104_
*1907 _1105_
*1908 _1106_
*1909 _1107_
*1910 _1108_
*1911 _1109_
*1912 _1110_
*1913 _1111_
*1914 _1112_
*1915 _1113_
*1916 _1114_
*1917 _1115_
*1918 _1116_
*1919 _1117_
*1920 _1118_
*1921 _1119_
*1922 _1120_
*1923 _1121_
*1924 _1122_
*1925 _1123_
*1926 _1124_
*1927 _1125_
*1928 _1126_
*1929 _1127_
*1930 _1128_
*1931 _1129_
*1932 _1130_
*1933 _1131_
*1934 _1132_
*1935 _1133_
*1936 _1134_
*1937 _1135_
*1938 _1136_
*1939 _1137_
*1940 _1138_
*1941 _1139_
*1942 _1140_
*1943 _1141_
*1944 _1142_
*1945 _1143_
*1946 _1144_
*1947 _1145_
*1948 _1146_
*1949 _1147_
*1950 _1148_
*1951 _1149_
*1952 _1150_
*1953 _1151_
*1954 _1152_
*1955 _1153_
*1956 _1154_
*1957 _1155_
*1958 _1156_
*1959 _1157_
*1960 _1158_
*1961 _1159_
*1962 _1160_
*1963 _1161_
*1964 _1162_
*1965 _1163_
*1966 _1164_
*1967 _1165_
*1968 _1166_
*1969 _1167_
*1970 _1168_
*1971 _1169_
*1972 _1170_
*1973 _1171_
*1974 _1172_
*1975 _1173_
*1976 _1174_
*1977 _1175_
*1978 _1176_
*1979 _1177_
*1980 _1178_
*1981 _1179_
*1982 _1180_
*1983 _1181_
*1984 _1182_
*1985 _1183_
*1986 _1184_
*1987 _1185_
*1988 _1186_
*1989 _1187_
*1990 _1188_
*1991 _1189_
*1992 _1190_
*1993 _1191_
*1994 _1192_
*1995 _1193_
*1996 _1194_
*1997 _1195_
*1998 _1196_
*1999 _1197_
*2000 _1198_
*2001 _1199_
*2002 _1200_
*2003 _1201_
*2004 _1202_
*2005 _1203_
*2006 _1204_
*2007 _1205_
*2008 _1206_
*2009 _1207_
*2010 _1208_
*2011 _1209_
*2012 _1210_
*2013 _1211_
*2014 _1212_
*2015 _1213_
*2016 _1214_
*2017 _1215_
*2018 _1216_
*2019 _1217_
*2020 _1218_
*2021 _1219_
*2022 _1220_
*2023 _1221_
*2024 _1222_
*2025 _1223_
*2026 _1224_
*2027 _1225_
*2028 _1226_
*2029 _1227_
*2030 _1228_
*2031 _1229_
*2032 _1230_
*2033 _1231_
*2034 _1232_
*2035 _1233_
*2036 _1234_
*2037 _1235_
*2038 _1236_
*2039 _1237_
*2040 _1238_
*2041 _1239_
*2042 _1240_