*SPEF "ieee 1481-1999"
*DESIGN "interconnect_outer"
*DATE "11:11:11 Fri 11 11, 1111"
*VENDOR "OpenRCX"
*PROGRAM "Parallel Extraction"
*VERSION "1.0"
*DESIGN_FLOW "NAME_SCOPE LOCAL" "PIN_CAP NONE"
*DIVIDER /
*DELIMITER :
*BUS_DELIMITER []
*T_UNIT 1 NS
*C_UNIT 1 PF
*R_UNIT 1 OHM
*L_UNIT 1 HENRY

*NAME_MAP
*1 c0_clk
*2 c1_clk
*3 dcache_clk
*4 ic0_clk
*5 ic1_clk
*6 inner_clock
*7 inner_disable
*8 inner_embed_mode
*9 inner_ext_irq
*10 inner_reset
*11 inner_wb_4_burst
*12 inner_wb_8_burst
*13 inner_wb_ack
*14 inner_wb_adr[0]
*15 inner_wb_adr[10]
*16 inner_wb_adr[11]
*17 inner_wb_adr[12]
*18 inner_wb_adr[13]
*19 inner_wb_adr[14]
*20 inner_wb_adr[15]
*21 inner_wb_adr[16]
*22 inner_wb_adr[17]
*23 inner_wb_adr[18]
*24 inner_wb_adr[19]
*25 inner_wb_adr[1]
*26 inner_wb_adr[20]
*27 inner_wb_adr[21]
*28 inner_wb_adr[22]
*29 inner_wb_adr[23]
*30 inner_wb_adr[2]
*31 inner_wb_adr[3]
*32 inner_wb_adr[4]
*33 inner_wb_adr[5]
*34 inner_wb_adr[6]
*35 inner_wb_adr[7]
*36 inner_wb_adr[8]
*37 inner_wb_adr[9]
*38 inner_wb_cyc
*39 inner_wb_err
*40 inner_wb_i_dat[0]
*41 inner_wb_i_dat[10]
*42 inner_wb_i_dat[11]
*43 inner_wb_i_dat[12]
*44 inner_wb_i_dat[13]
*45 inner_wb_i_dat[14]
*46 inner_wb_i_dat[15]
*47 inner_wb_i_dat[1]
*48 inner_wb_i_dat[2]
*49 inner_wb_i_dat[3]
*50 inner_wb_i_dat[4]
*51 inner_wb_i_dat[5]
*52 inner_wb_i_dat[6]
*53 inner_wb_i_dat[7]
*54 inner_wb_i_dat[8]
*55 inner_wb_i_dat[9]
*56 inner_wb_o_dat[0]
*57 inner_wb_o_dat[10]
*58 inner_wb_o_dat[11]
*59 inner_wb_o_dat[12]
*60 inner_wb_o_dat[13]
*61 inner_wb_o_dat[14]
*62 inner_wb_o_dat[15]
*63 inner_wb_o_dat[1]
*64 inner_wb_o_dat[2]
*65 inner_wb_o_dat[3]
*66 inner_wb_o_dat[4]
*67 inner_wb_o_dat[5]
*68 inner_wb_o_dat[6]
*69 inner_wb_o_dat[7]
*70 inner_wb_o_dat[8]
*71 inner_wb_o_dat[9]
*72 inner_wb_sel[0]
*73 inner_wb_sel[1]
*74 inner_wb_stb
*75 inner_wb_we
*76 iram_addr[0]
*77 iram_addr[1]
*78 iram_addr[2]
*79 iram_addr[3]
*80 iram_addr[4]
*81 iram_addr[5]
*82 iram_clk
*83 iram_i_data[0]
*84 iram_i_data[10]
*85 iram_i_data[11]
*86 iram_i_data[12]
*87 iram_i_data[13]
*88 iram_i_data[14]
*89 iram_i_data[15]
*90 iram_i_data[1]
*91 iram_i_data[2]
*92 iram_i_data[3]
*93 iram_i_data[4]
*94 iram_i_data[5]
*95 iram_i_data[6]
*96 iram_i_data[7]
*97 iram_i_data[8]
*98 iram_i_data[9]
*99 iram_o_data[0]
*100 iram_o_data[10]
*101 iram_o_data[11]
*102 iram_o_data[12]
*103 iram_o_data[13]
*104 iram_o_data[14]
*105 iram_o_data[15]
*106 iram_o_data[1]
*107 iram_o_data[2]
*108 iram_o_data[3]
*109 iram_o_data[4]
*110 iram_o_data[5]
*111 iram_o_data[6]
*112 iram_o_data[7]
*113 iram_o_data[8]
*114 iram_o_data[9]
*115 iram_we
*116 net275
*117 net276
*118 net277
*119 la_data_in[0]
*120 la_data_in[10]
*121 la_data_in[11]
*122 la_data_in[12]
*123 la_data_in[13]
*124 la_data_in[14]
*125 la_data_in[15]
*126 la_data_in[16]
*127 la_data_in[17]
*128 la_data_in[18]
*129 la_data_in[19]
*130 la_data_in[1]
*131 la_data_in[20]
*132 la_data_in[21]
*133 la_data_in[22]
*134 la_data_in[23]
*135 la_data_in[24]
*136 la_data_in[25]
*137 la_data_in[26]
*138 la_data_in[27]
*139 la_data_in[28]
*140 la_data_in[29]
*141 la_data_in[2]
*142 la_data_in[30]
*143 la_data_in[31]
*144 la_data_in[32]
*145 la_data_in[33]
*146 la_data_in[34]
*147 la_data_in[35]
*148 la_data_in[36]
*149 la_data_in[37]
*150 la_data_in[38]
*151 la_data_in[39]
*152 la_data_in[3]
*153 la_data_in[40]
*154 la_data_in[41]
*155 la_data_in[42]
*156 la_data_in[43]
*157 la_data_in[44]
*158 la_data_in[45]
*159 la_data_in[46]
*160 la_data_in[47]
*161 la_data_in[48]
*162 la_data_in[49]
*163 la_data_in[4]
*164 la_data_in[50]
*165 la_data_in[51]
*166 la_data_in[52]
*167 la_data_in[53]
*168 la_data_in[54]
*169 la_data_in[55]
*170 la_data_in[56]
*171 la_data_in[57]
*172 la_data_in[58]
*173 la_data_in[59]
*174 la_data_in[5]
*175 la_data_in[60]
*176 la_data_in[61]
*177 la_data_in[62]
*178 la_data_in[63]
*179 la_data_in[6]
*180 la_data_in[7]
*181 la_data_in[8]
*182 la_data_in[9]
*183 net278
*184 net288
*185 net289
*186 net290
*187 net291
*188 net292
*189 net293
*190 net294
*191 net295
*192 net296
*193 net297
*194 net279
*195 net298
*196 net299
*197 net300
*198 net301
*199 net302
*200 net303
*201 net304
*202 net305
*203 net306
*204 net307
*205 net280
*206 net308
*207 net309
*208 net281
*209 net282
*210 net283
*211 net284
*212 net285
*213 net286
*214 net287
*215 la_oenb[0]
*216 la_oenb[10]
*217 la_oenb[11]
*218 la_oenb[12]
*219 la_oenb[13]
*220 la_oenb[14]
*221 la_oenb[15]
*222 la_oenb[16]
*223 la_oenb[17]
*224 la_oenb[18]
*225 la_oenb[19]
*226 la_oenb[1]
*227 la_oenb[20]
*228 la_oenb[21]
*229 la_oenb[22]
*230 la_oenb[23]
*231 la_oenb[24]
*232 la_oenb[25]
*233 la_oenb[26]
*234 la_oenb[27]
*235 la_oenb[28]
*236 la_oenb[29]
*237 la_oenb[2]
*238 la_oenb[30]
*239 la_oenb[31]
*240 la_oenb[32]
*241 la_oenb[33]
*242 la_oenb[34]
*243 la_oenb[35]
*244 la_oenb[36]
*245 la_oenb[37]
*246 la_oenb[38]
*247 la_oenb[39]
*248 la_oenb[3]
*249 la_oenb[40]
*250 la_oenb[41]
*251 la_oenb[42]
*252 la_oenb[43]
*253 la_oenb[44]
*254 la_oenb[45]
*255 la_oenb[46]
*256 la_oenb[47]
*257 la_oenb[48]
*258 la_oenb[49]
*259 la_oenb[4]
*260 la_oenb[50]
*261 la_oenb[51]
*262 la_oenb[52]
*263 la_oenb[53]
*264 la_oenb[54]
*265 la_oenb[55]
*266 la_oenb[56]
*267 la_oenb[57]
*268 la_oenb[58]
*269 la_oenb[59]
*270 la_oenb[5]
*271 la_oenb[60]
*272 la_oenb[61]
*273 la_oenb[62]
*274 la_oenb[63]
*275 la_oenb[6]
*276 la_oenb[7]
*277 la_oenb[8]
*278 la_oenb[9]
*279 m_io_in[0]
*280 m_io_in[10]
*281 m_io_in[11]
*282 m_io_in[12]
*283 m_io_in[13]
*284 m_io_in[14]
*285 m_io_in[15]
*286 m_io_in[16]
*287 m_io_in[17]
*288 m_io_in[18]
*289 m_io_in[19]
*290 m_io_in[1]
*291 m_io_in[20]
*292 m_io_in[21]
*293 m_io_in[22]
*294 m_io_in[23]
*295 m_io_in[24]
*296 m_io_in[25]
*297 m_io_in[26]
*298 m_io_in[27]
*299 m_io_in[28]
*300 m_io_in[29]
*301 m_io_in[2]
*302 m_io_in[30]
*303 m_io_in[31]
*304 m_io_in[32]
*305 m_io_in[33]
*306 m_io_in[34]
*307 m_io_in[35]
*308 m_io_in[36]
*309 m_io_in[37]
*310 m_io_in[3]
*311 m_io_in[4]
*312 m_io_in[5]
*313 m_io_in[6]
*314 m_io_in[7]
*315 m_io_in[8]
*316 m_io_in[9]
*317 m_io_oeb[0]
*318 m_io_oeb[10]
*319 m_io_oeb[11]
*320 m_io_oeb[12]
*321 m_io_oeb[13]
*322 m_io_oeb[14]
*323 m_io_oeb[15]
*324 m_io_oeb[16]
*325 m_io_oeb[17]
*326 m_io_oeb[18]
*327 m_io_oeb[19]
*328 m_io_oeb[1]
*329 m_io_oeb[20]
*330 m_io_oeb[21]
*331 m_io_oeb[22]
*332 m_io_oeb[23]
*333 m_io_oeb[24]
*334 m_io_oeb[25]
*335 net356
*336 net357
*337 net358
*338 net312
*339 m_io_oeb[2]
*340 net359
*341 net360
*342 net361
*343 net362
*344 net363
*345 net364
*346 net313
*347 net314
*348 m_io_oeb[3]
*349 m_io_oeb[4]
*350 m_io_oeb[5]
*351 m_io_oeb[6]
*352 m_io_oeb[7]
*353 net310
*354 net311
*355 m_io_out[0]
*356 m_io_out[10]
*357 m_io_out[11]
*358 m_io_out[12]
*359 m_io_out[13]
*360 m_io_out[14]
*361 m_io_out[15]
*362 m_io_out[16]
*363 m_io_out[17]
*364 m_io_out[18]
*365 m_io_out[19]
*366 m_io_out[1]
*367 m_io_out[20]
*368 m_io_out[21]
*369 m_io_out[22]
*370 m_io_out[23]
*371 m_io_out[24]
*372 m_io_out[25]
*373 net315
*374 net316
*375 net365
*376 m_io_out[29]
*377 m_io_out[2]
*378 net317
*379 net318
*380 net319
*381 net320
*382 net321
*383 net322
*384 m_io_out[36]
*385 m_io_out[37]
*386 m_io_out[3]
*387 m_io_out[4]
*388 m_io_out[5]
*389 m_io_out[6]
*390 m_io_out[7]
*391 m_io_out[8]
*392 m_io_out[9]
*393 net323
*394 mgt_wb_adr_i[0]
*395 mgt_wb_adr_i[10]
*396 mgt_wb_adr_i[11]
*397 mgt_wb_adr_i[12]
*398 mgt_wb_adr_i[13]
*399 mgt_wb_adr_i[14]
*400 mgt_wb_adr_i[15]
*401 mgt_wb_adr_i[16]
*402 mgt_wb_adr_i[17]
*403 mgt_wb_adr_i[18]
*404 mgt_wb_adr_i[19]
*405 mgt_wb_adr_i[1]
*406 mgt_wb_adr_i[20]
*407 mgt_wb_adr_i[21]
*408 mgt_wb_adr_i[22]
*409 mgt_wb_adr_i[23]
*410 mgt_wb_adr_i[24]
*411 mgt_wb_adr_i[25]
*412 mgt_wb_adr_i[26]
*413 mgt_wb_adr_i[27]
*414 mgt_wb_adr_i[28]
*415 mgt_wb_adr_i[29]
*416 mgt_wb_adr_i[2]
*417 mgt_wb_adr_i[30]
*418 mgt_wb_adr_i[31]
*419 mgt_wb_adr_i[3]
*420 mgt_wb_adr_i[4]
*421 mgt_wb_adr_i[5]
*422 mgt_wb_adr_i[6]
*423 mgt_wb_adr_i[7]
*424 mgt_wb_adr_i[8]
*425 mgt_wb_adr_i[9]
*426 mgt_wb_clk_i
*427 mgt_wb_cyc_i
*428 mgt_wb_dat_i[0]
*429 mgt_wb_dat_i[10]
*430 mgt_wb_dat_i[11]
*431 mgt_wb_dat_i[12]
*432 mgt_wb_dat_i[13]
*433 mgt_wb_dat_i[14]
*434 mgt_wb_dat_i[15]
*435 mgt_wb_dat_i[16]
*436 mgt_wb_dat_i[17]
*437 mgt_wb_dat_i[18]
*438 mgt_wb_dat_i[19]
*439 mgt_wb_dat_i[1]
*440 mgt_wb_dat_i[20]
*441 mgt_wb_dat_i[21]
*442 mgt_wb_dat_i[22]
*443 mgt_wb_dat_i[23]
*444 mgt_wb_dat_i[24]
*445 mgt_wb_dat_i[25]
*446 mgt_wb_dat_i[26]
*447 mgt_wb_dat_i[27]
*448 mgt_wb_dat_i[28]
*449 mgt_wb_dat_i[29]
*450 mgt_wb_dat_i[2]
*451 mgt_wb_dat_i[30]
*452 mgt_wb_dat_i[31]
*453 mgt_wb_dat_i[3]
*454 mgt_wb_dat_i[4]
*455 mgt_wb_dat_i[5]
*456 mgt_wb_dat_i[6]
*457 mgt_wb_dat_i[7]
*458 mgt_wb_dat_i[8]
*459 mgt_wb_dat_i[9]
*460 net324
*461 net334
*462 net335
*463 net336
*464 net337
*465 net338
*466 net339
*467 net340
*468 net341
*469 net342
*470 net343
*471 net325
*472 net344
*473 net345
*474 net346
*475 net347
*476 net348
*477 net349
*478 net350
*479 net351
*480 net352
*481 net353
*482 net326
*483 net354
*484 net355
*485 net327
*486 net328
*487 net329
*488 net330
*489 net331
*490 net332
*491 net333
*492 mgt_wb_rst_i
*493 mgt_wb_sel_i[0]
*494 mgt_wb_sel_i[1]
*495 mgt_wb_sel_i[2]
*496 mgt_wb_sel_i[3]
*497 mgt_wb_stb_i
*498 mgt_wb_we_i
*499 user_clock2
*502 _0000_
*503 _0001_
*504 _0002_
*505 _0003_
*506 _0004_
*507 _0005_
*508 _0006_
*509 _0007_
*510 _0008_
*511 _0009_
*512 _0010_
*513 _0011_
*514 _0012_
*515 _0013_
*516 _0014_
*517 _0015_
*518 _0016_
*519 _0017_
*520 _0018_
*521 _0019_
*522 _0020_
*523 _0021_
*524 _0022_
*525 _0023_
*526 _0024_
*527 _0025_
*528 _0026_
*529 _0027_
*530 _0028_
*531 _0029_
*532 _0030_
*533 _0031_
*534 _0032_
*535 _0033_
*536 _0034_
*537 _0035_
*538 _0036_
*539 _0037_
*540 _0038_
*541 _0039_
*542 _0040_
*543 _0041_
*544 _0042_
*545 _0043_
*546 _0044_
*547 _0045_
*548 _0046_
*549 _0047_
*550 _0048_
*551 _0049_
*552 _0050_
*553 _0051_
*554 _0052_
*555 _0053_
*556 _0054_
*557 _0055_
*558 _0056_
*559 _0057_
*560 _0058_
*561 _0059_
*562 _0060_
*563 _0061_
*564 _0062_
*565 _0063_
*566 _0064_
*567 _0065_
*568 _0066_
*569 _0067_
*570 _0068_
*571 _0069_
*572 _0070_
*573 _0071_
*574 _0072_
*575 _0073_
*576 _0074_
*577 _0075_
*578 _0076_
*579 _0077_
*580 _0078_
*581 _0079_
*582 _0080_
*583 _0081_
*584 _0082_
*585 _0083_
*586 _0084_
*587 _0085_
*588 _0086_
*589 _0087_
*590 _0088_
*591 _0089_
*592 _0090_
*593 _0091_
*594 _0092_
*595 _0093_
*596 _0094_
*597 _0095_
*598 _0096_
*599 _0097_
*600 _0098_
*601 _0099_
*602 _0100_
*603 _0101_
*604 _0102_
*605 _0103_
*606 _0104_
*607 _0105_
*608 _0106_
*609 _0107_
*610 _0108_
*611 _0109_
*612 _0110_
*613 _0111_
*614 _0112_
*615 _0113_
*616 _0114_
*617 _0115_
*618 _0116_
*619 _0117_
*620 _0118_
*621 _0119_
*622 _0120_
*623 _0121_
*624 _0122_
*625 _0123_
*626 _0124_
*627 _0125_
*628 _0126_
*629 _0127_
*630 _0128_
*631 _0129_
*632 _0130_
*633 _0131_
*634 _0132_
*635 _0133_
*636 _0134_
*637 _0135_
*638 _0136_
*639 _0137_
*640 _0138_
*641 _0139_
*642 _0140_
*643 _0141_
*644 _0142_
*645 _0143_
*646 _0144_
*647 _0145_
*648 _0146_
*649 _0147_
*650 _0148_
*651 _0149_
*652 _0150_
*653 _0151_
*654 _0152_
*655 _0153_
*656 _0154_
*657 _0155_
*658 _0156_
*659 _0157_
*660 _0158_
*661 _0159_
*662 _0160_
*663 _0161_
*664 _0162_
*665 _0163_
*666 _0164_
*667 _0165_
*668 _0166_
*669 _0167_
*670 _0168_
*671 _0169_
*672 _0170_
*673 _0171_
*674 _0172_
*675 _0173_
*676 _0174_
*677 _0175_
*678 _0176_
*679 _0177_
*680 _0178_
*681 _0179_
*682 _0180_
*683 _0181_
*684 _0182_
*685 _0183_
*686 _0184_
*687 _0185_
*688 _0186_
*689 _0187_
*690 _0188_
*691 _0189_
*692 _0190_
*693 _0191_
*694 _0192_
*695 _0193_
*696 _0194_
*697 _0195_
*698 _0196_
*699 _0197_
*700 _0198_
*701 _0199_
*702 _0200_
*703 _0201_
*704 _0202_
*705 _0203_
*706 _0204_
*707 _0205_
*708 _0206_
*709 _0207_
*710 _0208_
*711 _0209_
*712 _0210_
*713 _0211_
*714 _0212_
*715 _0213_
*716 _0214_
*717 _0215_
*718 _0216_
*719 _0217_
*720 _0218_
*721 _0219_
*722 _0220_
*723 _0221_
*724 _0222_
*725 _0223_
*726 _0224_
*727 _0225_
*728 _0226_
*729 _0227_
*730 _0228_
*731 _0229_
*732 _0230_
*733 _0231_
*734 _0232_
*735 _0233_
*736 _0234_
*737 _0235_
*738 _0236_
*739 _0237_
*740 _0238_
*741 _0239_
*742 _0240_
*743 _0241_
*744 _0242_
*745 _0243_
*746 _0244_
*747 _0245_
*748 _0246_
*749 _0247_
*750 _0248_
*751 _0249_
*752 _0250_
*753 _0251_
*754 _0252_
*755 _0253_
*756 _0254_
*757 _0255_
*758 _0256_
*759 _0257_
*760 _0258_
*761 _0259_
*762 _0260_
*763 _0261_
*764 _0262_
*765 _0263_
*766 _0264_
*767 _0265_
*768 _0266_
*769 _0267_
*770 _0268_
*771 _0269_
*772 _0270_
*773 _0271_
*774 _0272_
*775 _0273_
*776 _0274_
*777 _0275_
*778 _0276_
*779 _0277_
*780 _0278_
*781 _0279_
*782 _0280_
*783 _0281_
*784 _0282_
*785 _0283_
*786 _0284_
*787 _0285_
*788 _0286_
*789 _0287_
*790 _0288_
*791 _0289_
*792 _0290_
*793 _0291_
*794 _0292_
*795 _0293_
*796 _0294_
*797 _0295_
*798 _0296_
*799 _0297_
*800 _0298_
*801 _0299_
*802 _0300_
*803 _0301_
*804 _0302_
*805 _0303_
*806 _0304_
*807 _0305_
*808 _0306_
*809 _0307_
*810 _0308_
*811 _0309_
*812 _0310_
*813 _0311_
*814 _0312_
*815 _0313_
*816 _0314_
*817 _0315_
*818 _0316_
*819 _0317_
*820 _0318_
*821 _0319_
*822 _0320_
*823 _0321_
*824 _0322_
*825 _0323_
*826 _0324_
*827 _0325_
*828 _0326_
*829 _0327_
*830 _0328_
*831 _0329_
*832 _0330_
*833 _0331_
*834 _0332_
*835 _0333_
*836 _0334_
*837 _0335_
*838 _0336_
*839 _0337_
*840 _0338_
*841 _0339_
*842 _0340_
*843 _0341_
*844 _0342_
*845 _0343_
*846 _0344_
*847 _0345_
*848 _0346_
*849 _0347_
*850 _0348_
*851 _0349_
*852 _0350_
*853 _0351_
*854 _0352_
*855 _0353_
*856 _0354_
*857 _0355_
*858 _0356_
*859 _0357_
*860 _0358_
*861 _0359_
*862 _0360_
*863 _0361_
*864 _0362_
*865 _0363_
*866 _0364_
*867 _0365_
*868 _0366_
*869 _0367_
*870 _0368_
*871 _0369_
*872 _0370_
*873 _0371_
*874 _0372_
*875 _0373_
*876 _0374_
*877 _0375_
*878 _0376_
*879 _0377_
*880 _0378_
*881 _0379_
*882 _0380_
*883 _0381_
*884 _0382_
*885 _0383_
*886 _0384_
*887 _0385_
*888 _0386_
*889 _0387_
*890 _0388_
*891 _0389_
*892 _0390_
*893 _0391_
*894 _0392_
*895 _0393_
*896 _0394_
*897 _0395_
*898 _0396_
*899 _0397_
*900 _0398_
*901 _0399_
*902 _0400_
*903 _0401_
*904 _0402_
*905 _0403_
*906 _0404_
*907 _0405_
*908 _0406_
*909 _0407_
*910 _0408_
*911 _0409_
*912 _0410_
*913 _0411_
*914 _0412_
*915 _0413_
*916 _0414_
*917 _0415_
*918 _0416_
*919 _0417_
*920 _0418_
*921 _0419_
*922 _0420_
*923 _0421_
*924 _0422_
*925 _0423_
*926 _0424_
*927 _0425_
*928 _0426_
*929 _0427_
*930 _0428_
*931 _0429_
*932 _0430_
*933 _0431_
*934 _0432_
*935 _0433_
*936 _0434_
*937 _0435_
*938 _0436_
*939 _0437_
*940 _0438_
*941 _0439_
*942 _0440_
*943 _0441_
*944 _0442_
*945 _0443_
*946 _0444_
*947 _0445_
*948 _0446_
*949 _0447_
*950 _0448_
*951 _0449_
*952 _0450_
*953 _0451_
*954 _0452_
*955 _0453_
*956 _0454_
*957 _0455_
*958 _0456_
*959 _0457_
*960 _0458_
*961 _0459_
*962 _0460_
*963 _0461_
*964 _0462_
*965 _0463_
*966 _0464_
*967 _0465_
*968 _0466_
*969 _0467_
*970 _0468_
*971 _0469_
*972 _0470_
*973 _0471_
*974 _0472_
*975 _0473_
*976 _0474_
*977 _0475_
*978 _0476_
*979 _0477_
*980 _0478_
*981 _0479_
*982 _0480_
*983 _0481_
*984 _0482_
*985 _0483_
*986 _0484_
*987 _0485_
*988 _0486_
*989 _0487_
*990 _0488_
*991 _0489_
*992 _0490_
*993 _0491_
*994 _0492_
*995 _0493_
*996 _0494_
*997 _0495_
*998 _0496_
*999 _0497_
*1000 _0498_
*1001 _0499_
*1002 _0500_
*1003 _0501_
*1004 _0502_
*1005 _0503_
*1006 _0504_
*1007 _0505_
*1008 _0506_
*1009 _0507_
*1010 _0508_
*1011 _0509_
*1012 _0510_
*1013 _0511_
*1014 _0512_
*1015 _0513_
*1016 _0514_
*1017 _0515_
*1018 _0516_
*1019 _0517_
*1020 _0518_
*1021 _0519_
*1022 _0520_
*1023 _0521_
*1024 _0522_
*1025 _0523_
*1026 _0524_
*1027 _0525_
*1028 _0526_
*1029 _0527_
*1030 _0528_
*1031 _0529_
*1032 _0530_
*1033 _0531_
*1034 _0532_
*1035 _0533_
*1036 _0534_
*1037 _0535_
*1038 _0536_
*1039 _0537_
*1040 _0538_
*1041 _0539_
*1042 _0540_
*1043 _0541_
*1044 _0542_
*1045 _0543_
*1046 _0544_
*1047 _0545_
*1048 _0546_
*1049 _0547_
*1050 _0548_
*1051 _0549_
*1052 _0550_
*1053 _0551_
*1054 _0552_
*1055 _0553_
*1056 _0554_
*1057 _0555_
*1058 _0556_
*1059 _0557_
*1060 _0558_
*1061 _0559_
*1062 _0560_
*1063 _0561_
*1064 _0562_
*1065 _0563_
*1066 _0564_
*1067 _0565_
*1068 _0566_
*1069 _0567_
*1070 _0568_
*1071 _0569_
*1072 _0570_
*1073 _0571_
*1074 _0572_
*1075 _0573_
*1076 _0574_
*1077 _0575_
*1078 _0576_
*1079 _0577_
*1080 _0578_
*1081 _0579_
*1082 _0580_
*1083 _0581_
*1084 _0582_
*1085 _0583_
*1086 _0584_
*1087 _0585_
*1088 _0586_
*1089 _0587_
*1090 _0588_
*1091 _0589_
*1092 _0590_
*1093 _0591_
*1094 _0592_
*1095 _0593_
*1096 _0594_
*1097 _0595_
*1098 _0596_
*1099 _0597_
*1100 _0598_
*1101 _0599_
*1102 _0600_
*1103 _0601_
*1104 _0602_
*1105 _0603_
*1106 _0604_
*1107 _0605_
*1108 _0606_
*1109 _0607_
*1110 _0608_
*1111 _0609_
*1112 _0610_
*1113 _0611_
*1114 _0612_
*1115 _0613_
*1116 _0614_
*1117 _0615_
*1118 _0616_
*1119 _0617_
*1120 _0618_
*1121 _0619_
*1122 _0620_
*1123 _0621_
*1124 _0622_
*1125 _0623_
*1126 _0624_
*1127 _0625_
*1128 _0626_
*1129 _0627_
*1130 _0628_
*1131 _0629_
*1132 _0630_
*1133 _0631_
*1134 _0632_
*1135 _0633_
*1136 _0634_
*1137 _0635_
*1138 _0636_
*1139 _0637_
*1140 _0638_
*1141 _0639_
*1142 _0640_
*1143 _0641_
*1144 _0642_
*1145 _0643_
*1146 _0644_
*1147 _0645_
*1148 _0646_
*1149 _0647_
*1150 _0648_
*1151 _0649_
*1152 _0650_
*1153 _0651_
*1154 _0652_
*1155 _0653_
*1156 _0654_
*1157 _0655_
*1158 _0656_
*1159 _0657_
*1160 _0658_
*1161 _0659_
*1162 _0660_
*1163 _0661_
*1164 _0662_
*1165 _0663_
*1166 _0664_
*1167 _0665_
*1168 _0666_
*1169 _0667_
*1170 _0668_
*1171 _0669_
*1172 _0670_
*1173 _0671_
*1174 _0672_
*1175 _0673_
*1176 _0674_
*1177 _0675_
*1178 _0676_
*1179 _0677_
*1180 _0678_
*1181 _0679_
*1182 _0680_
*1183 _0681_
*1184 _0682_
*1185 _0683_
*1186 _0684_
*1187 _0685_
*1188 _0686_
*1189 _0687_
*1190 _0688_
*1191 _0689_
*1192 _0690_
*1193 _0691_
*1194 _0692_
*1195 _0693_
*1196 _0694_
*1197 _0695_
*1198 _0696_
*1199 _0697_
*1200 _0698_
*1201 _0699_
*1202 _0700_
*1203 _0701_
*1204 _0702_
*1205 _0703_
*1206 _0704_
*1207 _0705_
*1208 _0706_
*1209 _0707_
*1210 _0708_
*1211 _0709_
*1212 _0710_
*1213 _0711_
*1214 _0712_
*1215 _0713_
*1216 _0714_
*1217 _0715_
*1218 _0716_
*1219 _0717_
*1220 _0718_
*1221 _0719_
*1222 _0720_
*1223 _0721_
*1224 _0722_
*1225 _0723_
*1226 _0724_
*1227 _0725_
*1228 _0726_
*1229 _0727_
*1230 _0728_
*1231 _0729_
*1232 _0730_
*1233 _0731_
*1234 _0732_
*1235 _0733_
*1236 _0734_
*1237 _0735_
*1238 _0736_
*1239 _0737_
*1240 _0738_
*1241 _0739_
*1242 _0740_
*1243 _0741_
*1244 _0742_
*1245 _0743_
*1246 _0744_
*1247 _0745_
*1248 _0746_
*1249 _0747_
*1250 _0748_
*1251 _0749_
*1252 _0750_
*1253 _0751_
*1254 _0752_
*1255 _0753_
*1256 _0754_
*1257 _0755_
*1258 _0756_
*1259 _0757_
*1260 _0758_
*1261 _0759_
*1262 _0760_
*1263 _0761_
*1264 _0762_
*1265 _0763_
*1266 _0764_
*1267 _0765_
*1268 _0766_
*1269 _0767_
*1270 _0768_
*1271 _0769_
*1272 _0770_
*1273 _0771_
*1274 _0772_
*1275 _0773_
*1276 _0774_
*1277 _0775_
*1278 _0776_
*1279 _0777_
*1280 _0778_
*1281 _0779_
*1282 _0780_
*1283 _0781_
*1284 _0782_
*1285 _0783_
*1286 _0784_
*1287 _0785_
*1288 _0786_
*1289 _0787_
*1290 _0788_
*1291 _0789_
*1292 _0790_
*1293 _0791_
*1294 _0792_
*1295 _0793_
*1296 _0794_
*1297 _0795_
*1298 _0796_
*1299 _0797_
*1300 _0798_
*1301 _0799_
*1302 _0800_
*1303 _0801_
*1304 _0802_
*1305 _0803_
*1306 _0804_
*1307 _0805_
*1308 _0806_
*1309 _0807_
*1310 _0808_
*1311 _0809_
*1312 _0810_
*1313 _0811_
*1314 _0812_
*1315 _0813_
*1316 _0814_
*1317 _0815_
*1318 _0816_
*1319 _0817_
*1320 _0818_
*1321 _0819_
*1322 _0820_
*1323 _0821_
*1324 _0822_
*1325 _0823_
*1326 _0824_
*1327 _0825_
*1328 _0826_
*1329 _0827_
*1330 _0828_
*1331 _0829_
*1332 _0830_
*1333 _0831_
*1334 _0832_
*1335 _0833_
*1336 _0834_
*1337 _0835_
*1338 _0836_
*1339 _0837_
*1340 _0838_
*1341 _0839_
*1342 _0840_
*1343 _0841_
*1344 _0842_
*1345 _0843_
*1346 _0844_
*1347 _0845_
*1348 _0846_
*1349 _0847_
*1350 _0848_
*1351 _0849_
*1352 _0850_
*1353 _0851_
*1354 _0852_
*1355 _0853_
*1356 _0854_
*1357 _0855_
*1358 _0856_
*1359 _0857_
*1360 _0858_
*1361 _0859_
*1362 _0860_
*1363 _0861_
*1364 _0862_
*1365 _0863_
*1366 _0864_
*1367 _0865_
*1368 _0866_
*1369 _0867_
*1370 _0868_
*1371 _0869_
*1372 _0870_
*1373 _0871_
*1374 _0872_
*1375 _0873_
*1376 _0874_
*1377 _0875_
*1378 _0876_
*1379 _0877_
*1380 _0878_
*1381 _0879_
*1382 _0880_
*1383 _0881_
*1384 _0882_
*1385 _0883_
*1386 _0884_
*1387 _0885_
*1388 _0886_
*1389 _0887_
*1390 _0888_
*1391 _0889_
*1392 _0890_
*1393 _0891_
*1394 _0892_
*1395 _0893_
*1396 _0894_
*1397 _0895_
*1398 _0896_
*1399 _0897_
*1400 _0898_
*1401 _0899_
*1402 _0900_
*1403 _0901_
*1404 _0902_
*1405 _0903_
*1406 _0904_
*1407 _0905_
*1408 _0906_
*1409 _0907_
*1410 _0908_
*1411 _0909_
*1412 _0910_
*1413 _0911_
*1414 _0912_
*1415 _0913_
*1416 _0914_
*1417 _0915_
*1418 _0916_
*1419 _0917_
*1420 _0918_
*1421 _0919_
*1422 _0920_
*1423 _0921_
*1424 _0922_
*1425 _0923_
*1426 _0924_
*1427 _0925_
*1428 _0926_
*1429 _0927_
*1430 _0928_
*1431 _0929_
*1432 _0930_
*1433 _0931_
*1434 _0932_
*1435 _0933_
*1436 _0934_
*1437 _0935_
*1438 _0936_
*1439 _0937_
*1440 _0938_
*1441 _0939_
*1442 _0940_
*1443 _0941_
*1444 _0942_
*1445 _0943_
*1446 _0944_
*1447 _0945_
*1448 _0946_
*1449 _0947_
*1450 _0948_
*1451 _0949_
*1452 _0950_
*1453 _0951_
*1454 _0952_
*1455 _0953_
*1456 _0954_
*1457 _0955_
*1458 _0956_
*1459 _0957_
*1460 _0958_
*1461 _0959_
*1462 _0960_
*1463 _0961_
*1464 _0962_
*1465 _0963_
*1466 _0964_
*1467 _0965_
*1468 _0966_
*1469 _0967_
*1470 _0968_
*1471 _0969_
*1472 _0970_
*1473 _0971_
*1474 _0972_
*1475 _0973_
*1476 _0974_
*1477 _0975_
*1478 _0976_
*1479 _0977_
*1480 _0978_
*1481 _0979_
*1482 _0980_
*1483 _0981_
*1484 _0982_
*1485 _0983_
*1486 _0984_
*1487 _0985_
*1488 _0986_
*1489 _0987_
*1490 _0988_
*1491 _0989_
*1492 _0990_
*1493 _0991_
*1494 _0992_
*1495 _0993_
*1496 _0994_
*1497 _0995_
*1498 _0996_
*1499 _0997_
*1500 _0998_
*1501 _0999_
*1502 _1000_
*1503 _1001_
*1504 _1002_
*1505 _1003_
*1506 _1004_
*1507 _1005_
*1508 _1006_
*1509 _1007_
*1510 _1008_
*1511 _1009_
*1512 _1010_
*1513 _1011_
*1514 _1012_
*1515 _1013_
*1516 _1014_
*1517 _1015_
*1518 _1016_
*1519 _1017_
*1520 _1018_
*1521 _1019_
*1522 _1020_
*1523 _1021_
*1524 _1022_
*1525 _1023_
*1526 _1024_
*1527 _1025_
*1528 _1026_
*1529 _1027_
*1530 _1028_
*1531 _1029_
*1532 _1030_
*1533 _1031_
*1534 _1032_
*1535 _1033_
*1536 _1034_
*1537 _1035_
*1538 _1036_
*1539 _1037_
*1540 _1038_
*1541 _1039_
*1542 _1040_
*1543 _1041_
*1544 _1042_
*1545 _1043_
*1546 _1044_
*1547 _1045_
*1548 _1046_
*1549 _1047_
*1550 _1048_
*1551 _1049_
*1552 _1050_
*1553 _1051_
*1554 _1052_
*1555 _1053_
*1556 _1054_
*1557 _1055_
*1558 _1056_
*1559 _1057_
*1560 _1058_
*1561 _1059_
*1562 _1060_
*1563 _1061_
*1564 _1062_
*1565 _1063_
*1566 _1064_
*1567 _1065_
*1568 _1066_
*1569 _1067_
*1570 _1068_
*1571 _1069_
*1572 _1070_
*1573 _1071_
*1574 _1072_
*1575 _1073_
*1576 _1074_
*1577 _1075_
*1578 _1076_
*1579 _1077_
*1580 _1078_
*1581 _1079_
*1582 _1080_
*1583 _1081_
*1584 _1082_
*1585 _1083_
*1586 _1084_
*1587 _1085_
*1588 _1086_
*1589 _1087_
*1590 _1088_
*1591 _1089_
*1592 _1090_
*1593 _1091_
*1594 _1092_
*1595 _1093_
*1596 _1094_
*1597 _1095_
*1598 _1096_
*1599 _1097_
*1600 _1098_
*1601 _1099_
*1602 _1100_
*1603 _1101_
*1604 _1102_
*1605 _1103_
*1606 _1104_
*1607 _1105_
*1608 _1106_
*1609 _1107_
*1610 _1108_
*1611 _1109_
*1612 _1110_
*1613 _1111_
*1614 _1112_
*1615 _1113_
*1616 _1114_
*1617 _1115_
*1618 _1116_
*1619 _1117_
*1620 _1118_
*1621 _1119_
*1622 _1120_
*1623 _1121_
*1624 _1122_
*1625 _1123_
*1626 _1124_
*1627 _1125_
*1628 _1126_
*1629 _1127_
*1630 _1128_
*1631 _1129_
*1632 _1130_
*1633 _1131_
*1634 _1132_
*1635 _1133_
*1636 _1134_
*1637 _1135_
*1638 _1136_
*1639 _1137_
*1640 _1138_
*1641 _1139_
*1642 _1140_
*1643 _1141_
*1644 _1142_
*1645 _1143_
*1646 _1144_
*1647 _1145_
*1648 _1146_
*1649 _1147_
*1650 _1148_
*1651 _1149_
*1652 _1150_
*1653 _1151_
*1654 _1152_
*1655 _1153_
*1656 _1154_
*1657 _1155_
*1658 _1156_
*1659 _1157_
*1660 _1158_
*1661 _1159_
*1662 _1160_
*1663 _1161_
*1664 _1162_
*1665 _1163_
*1666 _1164_
*1667 _1165_
*1668 _1166_
*1669 _1167_
*1670 _1168_
*1671 _1169_
*1672 _1170_
*1673 _1171_
*1674 _1172_
*1675 _1173_
*1676 _1174_
*1677 _1175_
*1678 _1176_
*1679 _1177_
*1680 _1178_
*1681 _1179_
*1682 _1180_
*1683 _1181_
*1684 _1182_
*1685 _1183_
*1686 _1184_
*1687 _1185_
*1688 _1186_
*1689 _1187_
*1690 _1188_
*1691 _1189_
*1692 _1190_
*1693 _1191_
*1694 _1192_
*1695 _1193_
*1696 _1194_
*1697 _1195_
*1698 _1196_
*1699 _1197_
*1700 _1198_
*1701 _1199_
*1702 _1200_
*1703 _1201_
*1704 _1202_
*1705 _1203_
*1706 _1204_
*1707 _1205_
*1708 _1206_
*1709 _1207_
*1710 _1208_
*1711 _1209_
*1712 _1210_
*1713 _1211_
*1714 _1212_
*1715 _1213_
*1716 _1214_
*1717 _1215_
*1718 _1216_
*1719 _1217_
*1720 _1218_
*1721 _1219_
*1722 _1220_
*1723 _1221_
*1724 _1222_
*1725 _1223_
*1726 _1224_
*1727 _1225_
*1728 _1226_
*1729 _1227_
*1730 _1228_
*1731 _1229_
*1732 _1230_
*1733 _1231_
*1734 _1232_
*1735 _1233_
*1736 _1234_
*1737 _1235_
*1738 _1236_
*1739 _1237_
*1740 _1238_
*1741 _1239_
*1742 _1240_
*1743 _1241_
*1744 _1242_
*1745 _1243_
*1746 _1244_
*1747 _1245_
*1748 _1246_
*1749 _1247_
*1750 _1248_
*1751 _1249_
*1752 _1250_
*1753 _1251_
*1754 _1252_
*1755 _1253_
*1756 _1254_
*1757 _1255_
*1758 _1256_
*1759 _1257_
*1760 _1258_
*1761 _1259_
*1762 _1260_
*1763 _1261_
*1764 _1262_
*1765 _1263_
*1766 _1264_
*1767 _1265_
*1768 _1266_
*1769 _1267_
*1770 _1268_
*1771 _1269_
*1772 _1270_
*1773 _1271_
*1774 _1272_
*1775 _1273_
*1776 _1274_
*1777 _1275_
*1778 _1276_
*1779 _1277_
*1780 _1278_
*1781 _1279_
*1782 _1280_
*1783 _1281_
*1784 _1282_
*1785 _1283_
*1786 _1284_
*1787 _1285_
*1788 _1286_
*1789 _1287_
*1790 _1288_
*1791 _1289_
*1792 _1290_
*1793 _1291_
*1794 _1292_
*1795 _1293_
*1796 _1294_
*1797 _1295_
*1798 _1296_
*1799 _1297_
*1800 _1298_
*1801 _1299_
*1802 _1300_
*1803 _1301_
*1804 _1302_
*1805 _1303_
*1806 _1304_
*1807 _1305_
*1808 _1306_
*1809 _1307_
*1810 _1308_
*1811 _1309_
*1812 _1310_
*1813 _1311_
*1814 _1312_
*1815 _1313_
*1816 _1314_
*1817 _1315_
*1818 _1316_
*1819 _1317_
*1820 _1318_
*1821 _1319_
*1822 _1320_
*1823 _1321_
*1824 _1322_
*1825 _1323_
*1826 _1324_
*1827 _1325_
*1828 _1326_
*1829 _1327_
*1830 _1328_
*1831 _1329_
*1832 _1330_
*1833 _1331_
*1834 _1332_
*1835 _1333_
*1836 _1334_
*1837 _1335_
*1838 _1336_
*1839 _1337_
*1840 _1338_
*1841 _1339_
*1842 _1340_
*1843 _1341_
*1844 _1342_
*1845 _1343_
*1846 _1344_
*1847 _1345_
*1848 _1346_
*1849 _1347_
*1850 _1348_
*1851 _1349_
*1852 _1350_
*1853 _1351_
*1854 _1352_
*1855 _1353_
*1856 _1354_
*1857 _1355_
*1858 _1356_
*1859 _1357_
*1860 _1358_
*1861 _1359_
*1862 _1360_
*1863 _1361_
*1864 _1362_
*1865 _1363_
*1866 _1364_
*1867 _1365_
*1868 _1366_
*1869 _1367_
*1870 _1368_
*1871 _1369_
*1872 _1370_
*1873 _1371_
*1874 _1372_
*1875 _1373_
*1876 _1374_
*1877 _1375_
*1878 _1376_
*1879 _1377_
*1880 _1378_
*1881 _1379_
*1882 _1380_
*1883 _1381_
*1884 _1382_
*1885 _1383_
*1886 _1384_
*1887 _1385_
*1888 _1386_
*1889 _1387_
*1890 _1388_
*1891 _1389_
*1892 _1390_
*1893 _1391_
*1894 _1392_
*1895 _1393_
*1896 _1394_
*1897 _1395_
*1898 _1396_
*1899 _1397_
*1900 _1398_
*1901 _1399_
*1902 _1400_
*1903 _1401_
*1904 _1402_
*1905 _1403_
*1906 _1404_
*1907 _1405_
*1908 _1406_
*1909 _1407_
*1910 _1408_
*1911 _1409_
*1912 _1410_
*1913 _1411_
*1914 _1412_
*1915 _1413_
*1916 _1414_
*1917 _1415_
*1918 _1416_
*1919 _1417_
*1920 _1418_
*1921 _1419_
*1922 _1420_
*1923 _1421_
*1924 _1422_
*1925 _1423_
*1926 _1424_
*1927 _1425_
*1928 _1426_
*1929 _1427_
*1930 _1428_
*1931 _1429_
*1932 _1430_
*1933 _1431_
*1934 _1432_
*1935 _1433_
*1936 _1434_
*1937 _1435_
*1938 _1436_
*1939 _1437_
*1940 _1438_
*1941 _1439_
*1942 _1440_
*1943 _1441_
*1944 _1442_
*1945 _1443_
*1946 _1444_
*1947 _1445_
*1948 _1446_
*1949 _1447_
*1950 _1448_
*1951 _1449_
*1952 _1450_
*1953 _1451_
*1954 _1452_
*1955 _1453_
*1956 _1454_
*1957 _1455_
*1958 _1456_
*1959 _1457_
*1960 _1458_
*1961 _1459_
*1962 _1460_
*1963 _1461_
*1964 _1462_
*1965 _1463_
*1966 _1464_
*1967 _1465_
*1968 _1466_
*1969 _1467_
*1970 _1468_
*1971 _1469_
*1972 _1470_
*1973 _1471_
*1974 _1472_
*1975 _1473_
*1976 _1474_
*1977 _1475_
*1978 _1476_
*1979 _1477_
*1980 _1478_
*1981 _1479_
*1982 _1480_
*1983 _1481_
*1984 _1482_
*1985 _1483_
*1986 _1484_
*1987 _1485_
*1988 _1486_
*1989 _1487_
*1990 _1488_
*1991 _1489_
*1992 _1490_
*1993 _1491_
*1994 _1492_
*1995 _1493_
*1996 _1494_
*1997 _1495_
*1998 _1496_
*1999 _1497_
*2000 _1498_
*2001 _1499_
*2002 _1500_
*2003 _1501_
*2004 _1502_
*2005 _1503_
*2006 _1504_
*2007 _1505_
*2008 _1506_
*2009 _1507_
*2010 _1508_
*2011 _1509_
*2012 _1510_
*2013 _1511_
*2014 _1512_
*2015 _1513_
*2016 _1514_
*2017 _1515_
*2018 _1516_
*2019 _1517_
*2020 _1518_
*2021 _1519_
*2022 _1520_
*2023 _1521_
*2024 _1522_
*2025 _1523_
*2026 _1524_
*2027 _1525_
*2028 _1526_
*2029 _1527_
*2030 _1528_
*2031 _1529_
*2032 _1530_
*2033 _1531_
*2034 _1532_
*2035 _1533_
*2036 _1534_
*2037 _1535_
*2038 _1536_
*2039 _1537_
*2040 _1538_
*2041 _1539_
*2042 _1540_
*2043 _1541_
*2044 _1542_
*2045 _1543_
*2046 _1544_
*2047 _1545_
*2048 _1546_
*2049 _1547_
*2050 _1548_
*2051 _1549_
*2052 _1550_
*2053 _1551_
*2054 _1552_
*2055 _1553_
*2056 _1554_
*2057 _1555_
*2058 _1556_
*2059 _1557_
*2060 _1558_
*2061 _1559_
*2062 _1560_
*2063 _1561_
*2064 _1562_
*2065 _1563_
*2066 _1564_
*2067 _1565_
*2068 _1566_
*2069 _1567_
*2070 _1568_
*2071 _1569_
*2072 _1570_
*2073 _1571_
*2074 _1572_
*2075 _1573_
*2076 _1574_
*2077 _1575_
*2078 _1576_
*2079 _1577_
*2080 _1578_
*2081 _1579_
*2082 _1580_
*2083 _1581_
*2084 _1582_
*2085 _1583_
*2086 _1584_
*2087 _1585_
*2088 _1586_
*2089 _1587_
*2090 _1588_
*2091 _1589_
*2092 _1590_
*2093 _1591_
*2094 _1592_
*2095 _1593_
*2096 _1594_
*2097 _1595_
*2098 clk_div\.clock_sel
*2099 clk_div\.clock_sel_r
*2100 clk_div\.cnt\[0\]
*2101 clk_div\.cnt\[10\]
*2102 clk_div\.cnt\[11\]
*2103 clk_div\.cnt\[12\]
*2104 clk_div\.cnt\[13\]
*2105 clk_div\.cnt\[14\]
*2106 clk_div\.cnt\[15\]
*2107 clk_div\.cnt\[1\]
*2108 clk_div\.cnt\[2\]
*2109 clk_div\.cnt\[3\]
*2110 clk_div\.cnt\[4\]
*2111 clk_div\.cnt\[5\]
*2112 clk_div\.cnt\[6\]
*2113 clk_div\.cnt\[7\]
*2114 clk_div\.cnt\[8\]
*2115 clk_div\.cnt\[9\]
*2116 clk_div\.curr_div\[0\]
*2117 clk_div\.curr_div\[1\]
*2118 clk_div\.curr_div\[2\]
*2119 clk_div\.curr_div\[3\]