*SPEF "ieee 1481-1999"
*DESIGN "user_project_wrapper"
*DATE "11:11:11 Fri 11 11, 1111"
*VENDOR "OpenRCX"
*PROGRAM "Parallel Extraction"
*VERSION "1.0"
*DESIGN_FLOW "NAME_SCOPE LOCAL" "PIN_CAP NONE"
*DIVIDER /
*DELIMITER :
*BUS_DELIMITER []
*T_UNIT 1 NS
*C_UNIT 1 PF
*R_UNIT 1 OHM
*L_UNIT 1 HENRY

*NAME_MAP
*1 analog_io[0]
*2 analog_io[10]
*3 analog_io[11]
*4 analog_io[12]
*5 analog_io[13]
*6 analog_io[14]
*7 analog_io[15]
*8 analog_io[16]
*9 analog_io[17]
*10 analog_io[18]
*11 analog_io[19]
*12 analog_io[1]
*13 analog_io[20]
*14 analog_io[21]
*15 analog_io[22]
*16 analog_io[23]
*17 analog_io[24]
*18 analog_io[25]
*19 analog_io[26]
*20 analog_io[27]
*21 analog_io[28]
*22 analog_io[2]
*23 analog_io[3]
*24 analog_io[4]
*25 analog_io[5]
*26 analog_io[6]
*27 analog_io[7]
*28 analog_io[8]
*29 analog_io[9]
*30 io_in[0]
*31 io_in[10]
*32 io_in[11]
*33 io_in[12]
*34 io_in[13]
*35 io_in[14]
*36 io_in[15]
*37 io_in[16]
*38 io_in[17]
*39 io_in[18]
*40 io_in[19]
*41 io_in[1]
*42 io_in[20]
*43 io_in[21]
*44 io_in[22]
*45 io_in[23]
*46 io_in[24]
*47 io_in[25]
*48 io_in[26]
*49 io_in[27]
*50 io_in[28]
*51 io_in[29]
*52 io_in[2]
*53 io_in[30]
*54 io_in[31]
*55 io_in[32]
*56 io_in[33]
*57 io_in[34]
*58 io_in[35]
*59 io_in[36]
*60 io_in[37]
*61 io_in[3]
*62 io_in[4]
*63 io_in[5]
*64 io_in[6]
*65 io_in[7]
*66 io_in[8]
*67 io_in[9]
*68 io_oeb[0]
*69 io_oeb[10]
*70 io_oeb[11]
*71 io_oeb[12]
*72 io_oeb[13]
*73 io_oeb[14]
*74 io_oeb[15]
*75 io_oeb[16]
*76 io_oeb[17]
*77 io_oeb[18]
*78 io_oeb[19]
*79 io_oeb[1]
*80 io_oeb[20]
*81 io_oeb[21]
*82 io_oeb[22]
*83 io_oeb[23]
*84 io_oeb[24]
*85 io_oeb[25]
*86 io_oeb[26]
*87 io_oeb[27]
*88 io_oeb[28]
*89 io_oeb[29]
*90 io_oeb[2]
*91 io_oeb[30]
*92 io_oeb[31]
*93 io_oeb[32]
*94 io_oeb[33]
*95 io_oeb[34]
*96 io_oeb[35]
*97 io_oeb[36]
*98 io_oeb[37]
*99 io_oeb[3]
*100 io_oeb[4]
*101 io_oeb[5]
*102 io_oeb[6]
*103 io_oeb[7]
*104 io_oeb[8]
*105 io_oeb[9]
*106 io_out[0]
*107 io_out[10]
*108 io_out[11]
*109 io_out[12]
*110 io_out[13]
*111 io_out[14]
*112 io_out[15]
*113 io_out[16]
*114 io_out[17]
*115 io_out[18]
*116 io_out[19]
*117 io_out[1]
*118 io_out[20]
*119 io_out[21]
*120 io_out[22]
*121 io_out[23]
*122 io_out[24]
*123 io_out[25]
*124 io_out[26]
*125 io_out[27]
*126 io_out[28]
*127 io_out[29]
*128 io_out[2]
*129 io_out[30]
*130 io_out[31]
*131 io_out[32]
*132 io_out[33]
*133 io_out[34]
*134 io_out[35]
*135 io_out[36]
*136 io_out[37]
*137 io_out[3]
*138 io_out[4]
*139 io_out[5]
*140 io_out[6]
*141 io_out[7]
*142 io_out[8]
*143 io_out[9]
*144 la_data_in[0]
*145 la_data_in[100]
*146 la_data_in[101]
*147 la_data_in[102]
*148 la_data_in[103]
*149 la_data_in[104]
*150 la_data_in[105]
*151 la_data_in[106]
*152 la_data_in[107]
*153 la_data_in[108]
*154 la_data_in[109]
*155 la_data_in[10]
*156 la_data_in[110]
*157 la_data_in[111]
*158 la_data_in[112]
*159 la_data_in[113]
*160 la_data_in[114]
*161 la_data_in[115]
*162 la_data_in[116]
*163 la_data_in[117]
*164 la_data_in[118]
*165 la_data_in[119]
*166 la_data_in[11]
*167 la_data_in[120]
*168 la_data_in[121]
*169 la_data_in[122]
*170 la_data_in[123]
*171 la_data_in[124]
*172 la_data_in[125]
*173 la_data_in[126]
*174 la_data_in[127]
*175 la_data_in[12]
*176 la_data_in[13]
*177 la_data_in[14]
*178 la_data_in[15]
*179 la_data_in[16]
*180 la_data_in[17]
*181 la_data_in[18]
*182 la_data_in[19]
*183 la_data_in[1]
*184 la_data_in[20]
*185 la_data_in[21]
*186 la_data_in[22]
*187 la_data_in[23]
*188 la_data_in[24]
*189 la_data_in[25]
*190 la_data_in[26]
*191 la_data_in[27]
*192 la_data_in[28]
*193 la_data_in[29]
*194 la_data_in[2]
*195 la_data_in[30]
*196 la_data_in[31]
*197 la_data_in[32]
*198 la_data_in[33]
*199 la_data_in[34]
*200 la_data_in[35]
*201 la_data_in[36]
*202 la_data_in[37]
*203 la_data_in[38]
*204 la_data_in[39]
*205 la_data_in[3]
*206 la_data_in[40]
*207 la_data_in[41]
*208 la_data_in[42]
*209 la_data_in[43]
*210 la_data_in[44]
*211 la_data_in[45]
*212 la_data_in[46]
*213 la_data_in[47]
*214 la_data_in[48]
*215 la_data_in[49]
*216 la_data_in[4]
*217 la_data_in[50]
*218 la_data_in[51]
*219 la_data_in[52]
*220 la_data_in[53]
*221 la_data_in[54]
*222 la_data_in[55]
*223 la_data_in[56]
*224 la_data_in[57]
*225 la_data_in[58]
*226 la_data_in[59]
*227 la_data_in[5]
*228 la_data_in[60]
*229 la_data_in[61]
*230 la_data_in[62]
*231 la_data_in[63]
*232 la_data_in[64]
*233 la_data_in[65]
*234 la_data_in[66]
*235 la_data_in[67]
*236 la_data_in[68]
*237 la_data_in[69]
*238 la_data_in[6]
*239 la_data_in[70]
*240 la_data_in[71]
*241 la_data_in[72]
*242 la_data_in[73]
*243 la_data_in[74]
*244 la_data_in[75]
*245 la_data_in[76]
*246 la_data_in[77]
*247 la_data_in[78]
*248 la_data_in[79]
*249 la_data_in[7]
*250 la_data_in[80]
*251 la_data_in[81]
*252 la_data_in[82]
*253 la_data_in[83]
*254 la_data_in[84]
*255 la_data_in[85]
*256 la_data_in[86]
*257 la_data_in[87]
*258 la_data_in[88]
*259 la_data_in[89]
*260 la_data_in[8]
*261 la_data_in[90]
*262 la_data_in[91]
*263 la_data_in[92]
*264 la_data_in[93]
*265 la_data_in[94]
*266 la_data_in[95]
*267 la_data_in[96]
*268 la_data_in[97]
*269 la_data_in[98]
*270 la_data_in[99]
*271 la_data_in[9]
*272 la_data_out[0]
*273 la_data_out[100]
*274 la_data_out[101]
*275 la_data_out[102]
*276 la_data_out[103]
*277 la_data_out[104]
*278 la_data_out[105]
*279 la_data_out[106]
*280 la_data_out[107]
*281 la_data_out[108]
*282 la_data_out[109]
*283 la_data_out[10]
*284 la_data_out[110]
*285 la_data_out[111]
*286 la_data_out[112]
*287 la_data_out[113]
*288 la_data_out[114]
*289 la_data_out[115]
*290 la_data_out[116]
*291 la_data_out[117]
*292 la_data_out[118]
*293 la_data_out[119]
*294 la_data_out[11]
*295 la_data_out[120]
*296 la_data_out[121]
*297 la_data_out[122]
*298 la_data_out[123]
*299 la_data_out[124]
*300 la_data_out[125]
*301 la_data_out[126]
*302 la_data_out[127]
*303 la_data_out[12]
*304 la_data_out[13]
*305 la_data_out[14]
*306 la_data_out[15]
*307 la_data_out[16]
*308 la_data_out[17]
*309 la_data_out[18]
*310 la_data_out[19]
*311 la_data_out[1]
*312 la_data_out[20]
*313 la_data_out[21]
*314 la_data_out[22]
*315 la_data_out[23]
*316 la_data_out[24]
*317 la_data_out[25]
*318 la_data_out[26]
*319 la_data_out[27]
*320 la_data_out[28]
*321 la_data_out[29]
*322 la_data_out[2]
*323 la_data_out[30]
*324 la_data_out[31]
*325 la_data_out[32]
*326 la_data_out[33]
*327 la_data_out[34]
*328 la_data_out[35]
*329 la_data_out[36]
*330 la_data_out[37]
*331 la_data_out[38]
*332 la_data_out[39]
*333 la_data_out[3]
*334 la_data_out[40]
*335 la_data_out[41]
*336 la_data_out[42]
*337 la_data_out[43]
*338 la_data_out[44]
*339 la_data_out[45]
*340 la_data_out[46]
*341 la_data_out[47]
*342 la_data_out[48]
*343 la_data_out[49]
*344 la_data_out[4]
*345 la_data_out[50]
*346 la_data_out[51]
*347 la_data_out[52]
*348 la_data_out[53]
*349 la_data_out[54]
*350 la_data_out[55]
*351 la_data_out[56]
*352 la_data_out[57]
*353 la_data_out[58]
*354 la_data_out[59]
*355 la_data_out[5]
*356 la_data_out[60]
*357 la_data_out[61]
*358 la_data_out[62]
*359 la_data_out[63]
*360 la_data_out[64]
*361 la_data_out[65]
*362 la_data_out[66]
*363 la_data_out[67]
*364 la_data_out[68]
*365 la_data_out[69]
*366 la_data_out[6]
*367 la_data_out[70]
*368 la_data_out[71]
*369 la_data_out[72]
*370 la_data_out[73]
*371 la_data_out[74]
*372 la_data_out[75]
*373 la_data_out[76]
*374 la_data_out[77]
*375 la_data_out[78]
*376 la_data_out[79]
*377 la_data_out[7]
*378 la_data_out[80]
*379 la_data_out[81]
*380 la_data_out[82]
*381 la_data_out[83]
*382 la_data_out[84]
*383 la_data_out[85]
*384 la_data_out[86]
*385 la_data_out[87]
*386 la_data_out[88]
*387 la_data_out[89]
*388 la_data_out[8]
*389 la_data_out[90]
*390 la_data_out[91]
*391 la_data_out[92]
*392 la_data_out[93]
*393 la_data_out[94]
*394 la_data_out[95]
*395 la_data_out[96]
*396 la_data_out[97]
*397 la_data_out[98]
*398 la_data_out[99]
*399 la_data_out[9]
*400 la_oenb[0]
*401 la_oenb[100]
*402 la_oenb[101]
*403 la_oenb[102]
*404 la_oenb[103]
*405 la_oenb[104]
*406 la_oenb[105]
*407 la_oenb[106]
*408 la_oenb[107]
*409 la_oenb[108]
*410 la_oenb[109]
*411 la_oenb[10]
*412 la_oenb[110]
*413 la_oenb[111]
*414 la_oenb[112]
*415 la_oenb[113]
*416 la_oenb[114]
*417 la_oenb[115]
*418 la_oenb[116]
*419 la_oenb[117]
*420 la_oenb[118]
*421 la_oenb[119]
*422 la_oenb[11]
*423 la_oenb[120]
*424 la_oenb[121]
*425 la_oenb[122]
*426 la_oenb[123]
*427 la_oenb[124]
*428 la_oenb[125]
*429 la_oenb[126]
*430 la_oenb[127]
*431 la_oenb[12]
*432 la_oenb[13]
*433 la_oenb[14]
*434 la_oenb[15]
*435 la_oenb[16]
*436 la_oenb[17]
*437 la_oenb[18]
*438 la_oenb[19]
*439 la_oenb[1]
*440 la_oenb[20]
*441 la_oenb[21]
*442 la_oenb[22]
*443 la_oenb[23]
*444 la_oenb[24]
*445 la_oenb[25]
*446 la_oenb[26]
*447 la_oenb[27]
*448 la_oenb[28]
*449 la_oenb[29]
*450 la_oenb[2]
*451 la_oenb[30]
*452 la_oenb[31]
*453 la_oenb[32]
*454 la_oenb[33]
*455 la_oenb[34]
*456 la_oenb[35]
*457 la_oenb[36]
*458 la_oenb[37]
*459 la_oenb[38]
*460 la_oenb[39]
*461 la_oenb[3]
*462 la_oenb[40]
*463 la_oenb[41]
*464 la_oenb[42]
*465 la_oenb[43]
*466 la_oenb[44]
*467 la_oenb[45]
*468 la_oenb[46]
*469 la_oenb[47]
*470 la_oenb[48]
*471 la_oenb[49]
*472 la_oenb[4]
*473 la_oenb[50]
*474 la_oenb[51]
*475 la_oenb[52]
*476 la_oenb[53]
*477 la_oenb[54]
*478 la_oenb[55]
*479 la_oenb[56]
*480 la_oenb[57]
*481 la_oenb[58]
*482 la_oenb[59]
*483 la_oenb[5]
*484 la_oenb[60]
*485 la_oenb[61]
*486 la_oenb[62]
*487 la_oenb[63]
*488 la_oenb[64]
*489 la_oenb[65]
*490 la_oenb[66]
*491 la_oenb[67]
*492 la_oenb[68]
*493 la_oenb[69]
*494 la_oenb[6]
*495 la_oenb[70]
*496 la_oenb[71]
*497 la_oenb[72]
*498 la_oenb[73]
*499 la_oenb[74]
*500 la_oenb[75]
*501 la_oenb[76]
*502 la_oenb[77]
*503 la_oenb[78]
*504 la_oenb[79]
*505 la_oenb[7]
*506 la_oenb[80]
*507 la_oenb[81]
*508 la_oenb[82]
*509 la_oenb[83]
*510 la_oenb[84]
*511 la_oenb[85]
*512 la_oenb[86]
*513 la_oenb[87]
*514 la_oenb[88]
*515 la_oenb[89]
*516 la_oenb[8]
*517 la_oenb[90]
*518 la_oenb[91]
*519 la_oenb[92]
*520 la_oenb[93]
*521 la_oenb[94]
*522 la_oenb[95]
*523 la_oenb[96]
*524 la_oenb[97]
*525 la_oenb[98]
*526 la_oenb[99]
*527 la_oenb[9]
*528 user_clock2
*529 user_irq[0]
*530 user_irq[1]
*531 user_irq[2]
*540 wb_clk_i
*541 wb_rst_i
*542 wbs_ack_o
*543 wbs_adr_i[0]
*544 wbs_adr_i[10]
*545 wbs_adr_i[11]
*546 wbs_adr_i[12]
*547 wbs_adr_i[13]
*548 wbs_adr_i[14]
*549 wbs_adr_i[15]
*550 wbs_adr_i[16]
*551 wbs_adr_i[17]
*552 wbs_adr_i[18]
*553 wbs_adr_i[19]
*554 wbs_adr_i[1]
*555 wbs_adr_i[20]
*556 wbs_adr_i[21]
*557 wbs_adr_i[22]
*558 wbs_adr_i[23]
*559 wbs_adr_i[24]
*560 wbs_adr_i[25]
*561 wbs_adr_i[26]
*562 wbs_adr_i[27]
*563 wbs_adr_i[28]
*564 wbs_adr_i[29]
*565 wbs_adr_i[2]
*566 wbs_adr_i[30]
*567 wbs_adr_i[31]
*568 wbs_adr_i[3]
*569 wbs_adr_i[4]
*570 wbs_adr_i[5]
*571 wbs_adr_i[6]
*572 wbs_adr_i[7]
*573 wbs_adr_i[8]
*574 wbs_adr_i[9]
*575 wbs_cyc_i
*576 wbs_dat_i[0]
*577 wbs_dat_i[10]
*578 wbs_dat_i[11]
*579 wbs_dat_i[12]
*580 wbs_dat_i[13]
*581 wbs_dat_i[14]
*582 wbs_dat_i[15]
*583 wbs_dat_i[16]
*584 wbs_dat_i[17]
*585 wbs_dat_i[18]
*586 wbs_dat_i[19]
*587 wbs_dat_i[1]
*588 wbs_dat_i[20]
*589 wbs_dat_i[21]
*590 wbs_dat_i[22]
*591 wbs_dat_i[23]
*592 wbs_dat_i[24]
*593 wbs_dat_i[25]
*594 wbs_dat_i[26]
*595 wbs_dat_i[27]
*596 wbs_dat_i[28]
*597 wbs_dat_i[29]
*598 wbs_dat_i[2]
*599 wbs_dat_i[30]
*600 wbs_dat_i[31]
*601 wbs_dat_i[3]
*602 wbs_dat_i[4]
*603 wbs_dat_i[5]
*604 wbs_dat_i[6]
*605 wbs_dat_i[7]
*606 wbs_dat_i[8]
*607 wbs_dat_i[9]
*608 wbs_dat_o[0]
*609 wbs_dat_o[10]
*610 wbs_dat_o[11]
*611 wbs_dat_o[12]
*612 wbs_dat_o[13]
*613 wbs_dat_o[14]
*614 wbs_dat_o[15]
*615 wbs_dat_o[16]
*616 wbs_dat_o[17]
*617 wbs_dat_o[18]
*618 wbs_dat_o[19]
*619 wbs_dat_o[1]
*620 wbs_dat_o[20]
*621 wbs_dat_o[21]
*622 wbs_dat_o[22]
*623 wbs_dat_o[23]
*624 wbs_dat_o[24]
*625 wbs_dat_o[25]
*626 wbs_dat_o[26]
*627 wbs_dat_o[27]
*628 wbs_dat_o[28]
*629 wbs_dat_o[29]
*630 wbs_dat_o[2]
*631 wbs_dat_o[30]
*632 wbs_dat_o[31]
*633 wbs_dat_o[3]
*634 wbs_dat_o[4]
*635 wbs_dat_o[5]
*636 wbs_dat_o[6]
*637 wbs_dat_o[7]
*638 wbs_dat_o[8]
*639 wbs_dat_o[9]
*640 wbs_sel_i[0]
*641 wbs_sel_i[1]
*642 wbs_sel_i[2]
*643 wbs_sel_i[3]
*644 wbs_stb_i
*645 wbs_we_i
*646 mprj/c0_clk
*647 mprj/c0_dbg_pc\[0\]
*648 mprj/c0_dbg_pc\[10\]
*649 mprj/c0_dbg_pc\[11\]
*650 mprj/c0_dbg_pc\[12\]
*651 mprj/c0_dbg_pc\[13\]
*652 mprj/c0_dbg_pc\[14\]
*653 mprj/c0_dbg_pc\[15\]
*654 mprj/c0_dbg_pc\[1\]
*655 mprj/c0_dbg_pc\[2\]
*656 mprj/c0_dbg_pc\[3\]
*657 mprj/c0_dbg_pc\[4\]
*658 mprj/c0_dbg_pc\[5\]
*659 mprj/c0_dbg_pc\[6\]
*660 mprj/c0_dbg_pc\[7\]
*661 mprj/c0_dbg_pc\[8\]
*662 mprj/c0_dbg_pc\[9\]
*663 mprj/c0_dbg_r0\[0\]
*664 mprj/c0_dbg_r0\[10\]
*665 mprj/c0_dbg_r0\[11\]
*666 mprj/c0_dbg_r0\[12\]
*667 mprj/c0_dbg_r0\[13\]
*668 mprj/c0_dbg_r0\[14\]
*669 mprj/c0_dbg_r0\[15\]
*670 mprj/c0_dbg_r0\[1\]
*671 mprj/c0_dbg_r0\[2\]
*672 mprj/c0_dbg_r0\[3\]
*673 mprj/c0_dbg_r0\[4\]
*674 mprj/c0_dbg_r0\[5\]
*675 mprj/c0_dbg_r0\[6\]
*676 mprj/c0_dbg_r0\[7\]
*677 mprj/c0_dbg_r0\[8\]
*678 mprj/c0_dbg_r0\[9\]
*679 mprj/c0_disable
*680 mprj/c0_i_core_int_sreg\[0\]
*681 mprj/c0_i_core_int_sreg\[10\]
*682 mprj/c0_i_core_int_sreg\[11\]
*683 mprj/c0_i_core_int_sreg\[12\]
*684 mprj/c0_i_core_int_sreg\[13\]
*685 mprj/c0_i_core_int_sreg\[14\]
*686 mprj/c0_i_core_int_sreg\[15\]
*687 mprj/c0_i_core_int_sreg\[1\]
*688 mprj/c0_i_core_int_sreg\[2\]
*689 mprj/c0_i_core_int_sreg\[3\]
*690 mprj/c0_i_core_int_sreg\[4\]
*691 mprj/c0_i_core_int_sreg\[5\]
*692 mprj/c0_i_core_int_sreg\[6\]
*693 mprj/c0_i_core_int_sreg\[7\]
*694 mprj/c0_i_core_int_sreg\[8\]
*695 mprj/c0_i_core_int_sreg\[9\]
*696 mprj/c0_i_irq
*697 mprj/c0_i_mc_core_int
*698 mprj/c0_i_mem_ack
*699 mprj/c0_i_mem_data\[0\]
*700 mprj/c0_i_mem_data\[10\]
*701 mprj/c0_i_mem_data\[11\]
*702 mprj/c0_i_mem_data\[12\]
*703 mprj/c0_i_mem_data\[13\]
*704 mprj/c0_i_mem_data\[14\]
*705 mprj/c0_i_mem_data\[15\]
*706 mprj/c0_i_mem_data\[1\]
*707 mprj/c0_i_mem_data\[2\]
*708 mprj/c0_i_mem_data\[3\]
*709 mprj/c0_i_mem_data\[4\]
*710 mprj/c0_i_mem_data\[5\]
*711 mprj/c0_i_mem_data\[6\]
*712 mprj/c0_i_mem_data\[7\]
*713 mprj/c0_i_mem_data\[8\]
*714 mprj/c0_i_mem_data\[9\]
*715 mprj/c0_i_mem_exception
*716 mprj/c0_i_req_data\[0\]
*717 mprj/c0_i_req_data\[10\]
*718 mprj/c0_i_req_data\[11\]
*719 mprj/c0_i_req_data\[12\]
*720 mprj/c0_i_req_data\[13\]
*721 mprj/c0_i_req_data\[14\]
*722 mprj/c0_i_req_data\[15\]
*723 mprj/c0_i_req_data\[16\]
*724 mprj/c0_i_req_data\[17\]
*725 mprj/c0_i_req_data\[18\]
*726 mprj/c0_i_req_data\[19\]
*727 mprj/c0_i_req_data\[1\]
*728 mprj/c0_i_req_data\[20\]
*729 mprj/c0_i_req_data\[21\]
*730 mprj/c0_i_req_data\[22\]
*731 mprj/c0_i_req_data\[23\]
*732 mprj/c0_i_req_data\[24\]
*733 mprj/c0_i_req_data\[25\]
*734 mprj/c0_i_req_data\[26\]
*735 mprj/c0_i_req_data\[27\]
*736 mprj/c0_i_req_data\[28\]
*737 mprj/c0_i_req_data\[29\]
*738 mprj/c0_i_req_data\[2\]
*739 mprj/c0_i_req_data\[30\]
*740 mprj/c0_i_req_data\[31\]
*741 mprj/c0_i_req_data\[3\]
*742 mprj/c0_i_req_data\[4\]
*743 mprj/c0_i_req_data\[5\]
*744 mprj/c0_i_req_data\[6\]
*745 mprj/c0_i_req_data\[7\]
*746 mprj/c0_i_req_data\[8\]
*747 mprj/c0_i_req_data\[9\]
*748 mprj/c0_i_req_data_valid
*749 mprj/c0_o_c_data_page
*750 mprj/c0_o_c_instr_long
*751 mprj/c0_o_c_instr_page
*752 mprj/c0_o_icache_flush
*753 mprj/c0_o_instr_long_addr\[0\]
*754 mprj/c0_o_instr_long_addr\[1\]
*755 mprj/c0_o_instr_long_addr\[2\]
*756 mprj/c0_o_instr_long_addr\[3\]
*757 mprj/c0_o_instr_long_addr\[4\]
*758 mprj/c0_o_instr_long_addr\[5\]
*759 mprj/c0_o_instr_long_addr\[6\]
*760 mprj/c0_o_instr_long_addr\[7\]
*761 mprj/c0_o_mem_addr\[0\]
*762 mprj/c0_o_mem_addr\[10\]
*763 mprj/c0_o_mem_addr\[11\]
*764 mprj/c0_o_mem_addr\[12\]
*765 mprj/c0_o_mem_addr\[13\]
*766 mprj/c0_o_mem_addr\[14\]
*767 mprj/c0_o_mem_addr\[15\]
*768 mprj/c0_o_mem_addr\[1\]
*769 mprj/c0_o_mem_addr\[2\]
*770 mprj/c0_o_mem_addr\[3\]
*771 mprj/c0_o_mem_addr\[4\]
*772 mprj/c0_o_mem_addr\[5\]
*773 mprj/c0_o_mem_addr\[6\]
*774 mprj/c0_o_mem_addr\[7\]
*775 mprj/c0_o_mem_addr\[8\]
*776 mprj/c0_o_mem_addr\[9\]
*777 mprj/c0_o_mem_addr_high\[0\]
*778 mprj/c0_o_mem_addr_high\[1\]
*779 mprj/c0_o_mem_addr_high\[2\]
*780 mprj/c0_o_mem_addr_high\[3\]
*781 mprj/c0_o_mem_addr_high\[4\]
*782 mprj/c0_o_mem_addr_high\[5\]
*783 mprj/c0_o_mem_addr_high\[6\]
*784 mprj/c0_o_mem_addr_high\[7\]
*785 mprj/c0_o_mem_data\[0\]
*786 mprj/c0_o_mem_data\[10\]
*787 mprj/c0_o_mem_data\[11\]
*788 mprj/c0_o_mem_data\[12\]
*789 mprj/c0_o_mem_data\[13\]
*790 mprj/c0_o_mem_data\[14\]
*791 mprj/c0_o_mem_data\[15\]
*792 mprj/c0_o_mem_data\[1\]
*793 mprj/c0_o_mem_data\[2\]
*794 mprj/c0_o_mem_data\[3\]
*795 mprj/c0_o_mem_data\[4\]
*796 mprj/c0_o_mem_data\[5\]
*797 mprj/c0_o_mem_data\[6\]
*798 mprj/c0_o_mem_data\[7\]
*799 mprj/c0_o_mem_data\[8\]
*800 mprj/c0_o_mem_data\[9\]
*801 mprj/c0_o_mem_long
*802 mprj/c0_o_mem_req
*803 mprj/c0_o_mem_sel\[0\]
*804 mprj/c0_o_mem_sel\[1\]
*805 mprj/c0_o_mem_we
*806 mprj/c0_o_req_active
*807 mprj/c0_o_req_addr\[0\]
*808 mprj/c0_o_req_addr\[10\]
*809 mprj/c0_o_req_addr\[11\]
*810 mprj/c0_o_req_addr\[12\]
*811 mprj/c0_o_req_addr\[13\]
*812 mprj/c0_o_req_addr\[14\]
*813 mprj/c0_o_req_addr\[15\]
*814 mprj/c0_o_req_addr\[1\]
*815 mprj/c0_o_req_addr\[2\]
*816 mprj/c0_o_req_addr\[3\]
*817 mprj/c0_o_req_addr\[4\]
*818 mprj/c0_o_req_addr\[5\]
*819 mprj/c0_o_req_addr\[6\]
*820 mprj/c0_o_req_addr\[7\]
*821 mprj/c0_o_req_addr\[8\]
*822 mprj/c0_o_req_addr\[9\]
*823 mprj/c0_o_req_ppl_submit
*824 mprj/c0_rst
*825 mprj/c0_sr_bus_addr\[0\]
*826 mprj/c0_sr_bus_addr\[10\]
*827 mprj/c0_sr_bus_addr\[11\]
*828 mprj/c0_sr_bus_addr\[12\]
*829 mprj/c0_sr_bus_addr\[13\]
*830 mprj/c0_sr_bus_addr\[14\]
*831 mprj/c0_sr_bus_addr\[15\]
*832 mprj/c0_sr_bus_addr\[1\]
*833 mprj/c0_sr_bus_addr\[2\]
*834 mprj/c0_sr_bus_addr\[3\]
*835 mprj/c0_sr_bus_addr\[4\]
*836 mprj/c0_sr_bus_addr\[5\]
*837 mprj/c0_sr_bus_addr\[6\]
*838 mprj/c0_sr_bus_addr\[7\]
*839 mprj/c0_sr_bus_addr\[8\]
*840 mprj/c0_sr_bus_addr\[9\]
*841 mprj/c0_sr_bus_data_o\[0\]
*842 mprj/c0_sr_bus_data_o\[10\]
*843 mprj/c0_sr_bus_data_o\[11\]
*844 mprj/c0_sr_bus_data_o\[12\]
*845 mprj/c0_sr_bus_data_o\[13\]
*846 mprj/c0_sr_bus_data_o\[14\]
*847 mprj/c0_sr_bus_data_o\[15\]
*848 mprj/c0_sr_bus_data_o\[1\]
*849 mprj/c0_sr_bus_data_o\[2\]
*850 mprj/c0_sr_bus_data_o\[3\]
*851 mprj/c0_sr_bus_data_o\[4\]
*852 mprj/c0_sr_bus_data_o\[5\]
*853 mprj/c0_sr_bus_data_o\[6\]
*854 mprj/c0_sr_bus_data_o\[7\]
*855 mprj/c0_sr_bus_data_o\[8\]
*856 mprj/c0_sr_bus_data_o\[9\]
*857 mprj/c0_sr_bus_we
*858 mprj/c1_clk
*859 mprj/c1_dbg_pc\[0\]
*860 mprj/c1_dbg_pc\[10\]
*861 mprj/c1_dbg_pc\[11\]
*862 mprj/c1_dbg_pc\[12\]
*863 mprj/c1_dbg_pc\[13\]
*864 mprj/c1_dbg_pc\[14\]
*865 mprj/c1_dbg_pc\[15\]
*866 mprj/c1_dbg_pc\[1\]
*867 mprj/c1_dbg_pc\[2\]
*868 mprj/c1_dbg_pc\[3\]
*869 mprj/c1_dbg_pc\[4\]
*870 mprj/c1_dbg_pc\[5\]
*871 mprj/c1_dbg_pc\[6\]
*872 mprj/c1_dbg_pc\[7\]
*873 mprj/c1_dbg_pc\[8\]
*874 mprj/c1_dbg_pc\[9\]
*875 mprj/c1_dbg_r0\[0\]
*876 mprj/c1_dbg_r0\[10\]
*877 mprj/c1_dbg_r0\[11\]
*878 mprj/c1_dbg_r0\[12\]
*879 mprj/c1_dbg_r0\[13\]
*880 mprj/c1_dbg_r0\[14\]
*881 mprj/c1_dbg_r0\[15\]
*882 mprj/c1_dbg_r0\[1\]
*883 mprj/c1_dbg_r0\[2\]
*884 mprj/c1_dbg_r0\[3\]
*885 mprj/c1_dbg_r0\[4\]
*886 mprj/c1_dbg_r0\[5\]
*887 mprj/c1_dbg_r0\[6\]
*888 mprj/c1_dbg_r0\[7\]
*889 mprj/c1_dbg_r0\[8\]
*890 mprj/c1_dbg_r0\[9\]
*891 mprj/c1_disable
*892 mprj/c1_i_core_int_sreg\[0\]
*893 mprj/c1_i_core_int_sreg\[10\]
*894 mprj/c1_i_core_int_sreg\[11\]
*895 mprj/c1_i_core_int_sreg\[12\]
*896 mprj/c1_i_core_int_sreg\[13\]
*897 mprj/c1_i_core_int_sreg\[14\]
*898 mprj/c1_i_core_int_sreg\[15\]
*899 mprj/c1_i_core_int_sreg\[1\]
*900 mprj/c1_i_core_int_sreg\[2\]
*901 mprj/c1_i_core_int_sreg\[3\]
*902 mprj/c1_i_core_int_sreg\[4\]
*903 mprj/c1_i_core_int_sreg\[5\]
*904 mprj/c1_i_core_int_sreg\[6\]
*905 mprj/c1_i_core_int_sreg\[7\]
*906 mprj/c1_i_core_int_sreg\[8\]
*907 mprj/c1_i_core_int_sreg\[9\]
*908 mprj/c1_i_irq
*909 mprj/c1_i_mc_core_int
*910 mprj/c1_i_mem_ack
*911 mprj/c1_i_mem_data\[0\]
*912 mprj/c1_i_mem_data\[10\]
*913 mprj/c1_i_mem_data\[11\]
*914 mprj/c1_i_mem_data\[12\]
*915 mprj/c1_i_mem_data\[13\]
*916 mprj/c1_i_mem_data\[14\]
*917 mprj/c1_i_mem_data\[15\]
*918 mprj/c1_i_mem_data\[1\]
*919 mprj/c1_i_mem_data\[2\]
*920 mprj/c1_i_mem_data\[3\]
*921 mprj/c1_i_mem_data\[4\]
*922 mprj/c1_i_mem_data\[5\]
*923 mprj/c1_i_mem_data\[6\]
*924 mprj/c1_i_mem_data\[7\]
*925 mprj/c1_i_mem_data\[8\]
*926 mprj/c1_i_mem_data\[9\]
*927 mprj/c1_i_mem_exception
*928 mprj/c1_i_req_data\[0\]
*929 mprj/c1_i_req_data\[10\]
*930 mprj/c1_i_req_data\[11\]
*931 mprj/c1_i_req_data\[12\]
*932 mprj/c1_i_req_data\[13\]
*933 mprj/c1_i_req_data\[14\]
*934 mprj/c1_i_req_data\[15\]
*935 mprj/c1_i_req_data\[16\]
*936 mprj/c1_i_req_data\[17\]
*937 mprj/c1_i_req_data\[18\]
*938 mprj/c1_i_req_data\[19\]
*939 mprj/c1_i_req_data\[1\]
*940 mprj/c1_i_req_data\[20\]
*941 mprj/c1_i_req_data\[21\]
*942 mprj/c1_i_req_data\[22\]
*943 mprj/c1_i_req_data\[23\]
*944 mprj/c1_i_req_data\[24\]
*945 mprj/c1_i_req_data\[25\]
*946 mprj/c1_i_req_data\[26\]
*947 mprj/c1_i_req_data\[27\]
*948 mprj/c1_i_req_data\[28\]
*949 mprj/c1_i_req_data\[29\]
*950 mprj/c1_i_req_data\[2\]
*951 mprj/c1_i_req_data\[30\]
*952 mprj/c1_i_req_data\[31\]
*953 mprj/c1_i_req_data\[3\]
*954 mprj/c1_i_req_data\[4\]
*955 mprj/c1_i_req_data\[5\]
*956 mprj/c1_i_req_data\[6\]
*957 mprj/c1_i_req_data\[7\]
*958 mprj/c1_i_req_data\[8\]
*959 mprj/c1_i_req_data\[9\]
*960 mprj/c1_i_req_data_valid
*961 mprj/c1_o_c_data_page
*962 mprj/c1_o_c_instr_long
*963 mprj/c1_o_c_instr_page
*964 mprj/c1_o_icache_flush
*965 mprj/c1_o_instr_long_addr\[0\]
*966 mprj/c1_o_instr_long_addr\[1\]
*967 mprj/c1_o_instr_long_addr\[2\]
*968 mprj/c1_o_instr_long_addr\[3\]
*969 mprj/c1_o_instr_long_addr\[4\]
*970 mprj/c1_o_instr_long_addr\[5\]
*971 mprj/c1_o_instr_long_addr\[6\]
*972 mprj/c1_o_instr_long_addr\[7\]
*973 mprj/c1_o_mem_addr\[0\]
*974 mprj/c1_o_mem_addr\[10\]
*975 mprj/c1_o_mem_addr\[11\]
*976 mprj/c1_o_mem_addr\[12\]
*977 mprj/c1_o_mem_addr\[13\]
*978 mprj/c1_o_mem_addr\[14\]
*979 mprj/c1_o_mem_addr\[15\]
*980 mprj/c1_o_mem_addr\[1\]
*981 mprj/c1_o_mem_addr\[2\]
*982 mprj/c1_o_mem_addr\[3\]
*983 mprj/c1_o_mem_addr\[4\]
*984 mprj/c1_o_mem_addr\[5\]
*985 mprj/c1_o_mem_addr\[6\]
*986 mprj/c1_o_mem_addr\[7\]
*987 mprj/c1_o_mem_addr\[8\]
*988 mprj/c1_o_mem_addr\[9\]
*989 mprj/c1_o_mem_addr_high\[0\]
*990 mprj/c1_o_mem_addr_high\[1\]
*991 mprj/c1_o_mem_addr_high\[2\]
*992 mprj/c1_o_mem_addr_high\[3\]
*993 mprj/c1_o_mem_addr_high\[4\]
*994 mprj/c1_o_mem_addr_high\[5\]
*995 mprj/c1_o_mem_addr_high\[6\]
*996 mprj/c1_o_mem_addr_high\[7\]
*997 mprj/c1_o_mem_data\[0\]
*998 mprj/c1_o_mem_data\[10\]
*999 mprj/c1_o_mem_data\[11\]
*1000 mprj/c1_o_mem_data\[12\]
*1001 mprj/c1_o_mem_data\[13\]
*1002 mprj/c1_o_mem_data\[14\]
*1003 mprj/c1_o_mem_data\[15\]
*1004 mprj/c1_o_mem_data\[1\]
*1005 mprj/c1_o_mem_data\[2\]
*1006 mprj/c1_o_mem_data\[3\]
*1007 mprj/c1_o_mem_data\[4\]
*1008 mprj/c1_o_mem_data\[5\]
*1009 mprj/c1_o_mem_data\[6\]
*1010 mprj/c1_o_mem_data\[7\]
*1011 mprj/c1_o_mem_data\[8\]
*1012 mprj/c1_o_mem_data\[9\]
*1013 mprj/c1_o_mem_long
*1014 mprj/c1_o_mem_req
*1015 mprj/c1_o_mem_sel\[0\]
*1016 mprj/c1_o_mem_sel\[1\]
*1017 mprj/c1_o_mem_we
*1018 mprj/c1_o_req_active
*1019 mprj/c1_o_req_addr\[0\]
*1020 mprj/c1_o_req_addr\[10\]
*1021 mprj/c1_o_req_addr\[11\]
*1022 mprj/c1_o_req_addr\[12\]
*1023 mprj/c1_o_req_addr\[13\]
*1024 mprj/c1_o_req_addr\[14\]
*1025 mprj/c1_o_req_addr\[15\]
*1026 mprj/c1_o_req_addr\[1\]
*1027 mprj/c1_o_req_addr\[2\]
*1028 mprj/c1_o_req_addr\[3\]
*1029 mprj/c1_o_req_addr\[4\]
*1030 mprj/c1_o_req_addr\[5\]
*1031 mprj/c1_o_req_addr\[6\]
*1032 mprj/c1_o_req_addr\[7\]
*1033 mprj/c1_o_req_addr\[8\]
*1034 mprj/c1_o_req_addr\[9\]
*1035 mprj/c1_o_req_ppl_submit
*1036 mprj/c1_rst
*1037 mprj/c1_sr_bus_addr\[0\]
*1038 mprj/c1_sr_bus_addr\[10\]
*1039 mprj/c1_sr_bus_addr\[11\]
*1040 mprj/c1_sr_bus_addr\[12\]
*1041 mprj/c1_sr_bus_addr\[13\]
*1042 mprj/c1_sr_bus_addr\[14\]
*1043 mprj/c1_sr_bus_addr\[15\]
*1044 mprj/c1_sr_bus_addr\[1\]
*1045 mprj/c1_sr_bus_addr\[2\]
*1046 mprj/c1_sr_bus_addr\[3\]
*1047 mprj/c1_sr_bus_addr\[4\]
*1048 mprj/c1_sr_bus_addr\[5\]
*1049 mprj/c1_sr_bus_addr\[6\]
*1050 mprj/c1_sr_bus_addr\[7\]
*1051 mprj/c1_sr_bus_addr\[8\]
*1052 mprj/c1_sr_bus_addr\[9\]
*1053 mprj/c1_sr_bus_data_o\[0\]
*1054 mprj/c1_sr_bus_data_o\[10\]
*1055 mprj/c1_sr_bus_data_o\[11\]
*1056 mprj/c1_sr_bus_data_o\[12\]
*1057 mprj/c1_sr_bus_data_o\[13\]
*1058 mprj/c1_sr_bus_data_o\[14\]
*1059 mprj/c1_sr_bus_data_o\[15\]
*1060 mprj/c1_sr_bus_data_o\[1\]
*1061 mprj/c1_sr_bus_data_o\[2\]
*1062 mprj/c1_sr_bus_data_o\[3\]
*1063 mprj/c1_sr_bus_data_o\[4\]
*1064 mprj/c1_sr_bus_data_o\[5\]
*1065 mprj/c1_sr_bus_data_o\[6\]
*1066 mprj/c1_sr_bus_data_o\[7\]
*1067 mprj/c1_sr_bus_data_o\[8\]
*1068 mprj/c1_sr_bus_data_o\[9\]
*1069 mprj/c1_sr_bus_we
*1070 mprj/dcache_clk
*1071 mprj/dcache_mem_ack
*1072 mprj/dcache_mem_addr\[0\]
*1073 mprj/dcache_mem_addr\[10\]
*1074 mprj/dcache_mem_addr\[11\]
*1075 mprj/dcache_mem_addr\[12\]
*1076 mprj/dcache_mem_addr\[13\]
*1077 mprj/dcache_mem_addr\[14\]
*1078 mprj/dcache_mem_addr\[15\]
*1079 mprj/dcache_mem_addr\[16\]
*1080 mprj/dcache_mem_addr\[17\]
*1081 mprj/dcache_mem_addr\[18\]
*1082 mprj/dcache_mem_addr\[19\]
*1083 mprj/dcache_mem_addr\[1\]
*1084 mprj/dcache_mem_addr\[20\]
*1085 mprj/dcache_mem_addr\[21\]
*1086 mprj/dcache_mem_addr\[22\]
*1087 mprj/dcache_mem_addr\[23\]
*1088 mprj/dcache_mem_addr\[2\]
*1089 mprj/dcache_mem_addr\[3\]
*1090 mprj/dcache_mem_addr\[4\]
*1091 mprj/dcache_mem_addr\[5\]
*1092 mprj/dcache_mem_addr\[6\]
*1093 mprj/dcache_mem_addr\[7\]
*1094 mprj/dcache_mem_addr\[8\]
*1095 mprj/dcache_mem_addr\[9\]
*1096 mprj/dcache_mem_cache_enable
*1097 mprj/dcache_mem_exception
*1098 mprj/dcache_mem_i_data\[0\]
*1099 mprj/dcache_mem_i_data\[10\]
*1100 mprj/dcache_mem_i_data\[11\]
*1101 mprj/dcache_mem_i_data\[12\]
*1102 mprj/dcache_mem_i_data\[13\]
*1103 mprj/dcache_mem_i_data\[14\]
*1104 mprj/dcache_mem_i_data\[15\]
*1105 mprj/dcache_mem_i_data\[1\]
*1106 mprj/dcache_mem_i_data\[2\]
*1107 mprj/dcache_mem_i_data\[3\]
*1108 mprj/dcache_mem_i_data\[4\]
*1109 mprj/dcache_mem_i_data\[5\]
*1110 mprj/dcache_mem_i_data\[6\]
*1111 mprj/dcache_mem_i_data\[7\]
*1112 mprj/dcache_mem_i_data\[8\]
*1113 mprj/dcache_mem_i_data\[9\]
*1114 mprj/dcache_mem_o_data\[0\]
*1115 mprj/dcache_mem_o_data\[10\]
*1116 mprj/dcache_mem_o_data\[11\]
*1117 mprj/dcache_mem_o_data\[12\]
*1118 mprj/dcache_mem_o_data\[13\]
*1119 mprj/dcache_mem_o_data\[14\]
*1120 mprj/dcache_mem_o_data\[15\]
*1121 mprj/dcache_mem_o_data\[1\]
*1122 mprj/dcache_mem_o_data\[2\]
*1123 mprj/dcache_mem_o_data\[3\]
*1124 mprj/dcache_mem_o_data\[4\]
*1125 mprj/dcache_mem_o_data\[5\]
*1126 mprj/dcache_mem_o_data\[6\]
*1127 mprj/dcache_mem_o_data\[7\]
*1128 mprj/dcache_mem_o_data\[8\]
*1129 mprj/dcache_mem_o_data\[9\]
*1130 mprj/dcache_mem_req
*1131 mprj/dcache_mem_sel\[0\]
*1132 mprj/dcache_mem_sel\[1\]
*1133 mprj/dcache_mem_we
*1134 mprj/dcache_rst
*1135 mprj/dcache_wb_4_burst
*1136 mprj/dcache_wb_ack
*1137 mprj/dcache_wb_adr\[0\]
*1138 mprj/dcache_wb_adr\[10\]
*1139 mprj/dcache_wb_adr\[11\]
*1140 mprj/dcache_wb_adr\[12\]
*1141 mprj/dcache_wb_adr\[13\]
*1142 mprj/dcache_wb_adr\[14\]
*1143 mprj/dcache_wb_adr\[15\]
*1144 mprj/dcache_wb_adr\[16\]
*1145 mprj/dcache_wb_adr\[17\]
*1146 mprj/dcache_wb_adr\[18\]
*1147 mprj/dcache_wb_adr\[19\]
*1148 mprj/dcache_wb_adr\[1\]
*1149 mprj/dcache_wb_adr\[20\]
*1150 mprj/dcache_wb_adr\[21\]
*1151 mprj/dcache_wb_adr\[22\]
*1152 mprj/dcache_wb_adr\[23\]
*1153 mprj/dcache_wb_adr\[2\]
*1154 mprj/dcache_wb_adr\[3\]
*1155 mprj/dcache_wb_adr\[4\]
*1156 mprj/dcache_wb_adr\[5\]
*1157 mprj/dcache_wb_adr\[6\]
*1158 mprj/dcache_wb_adr\[7\]
*1159 mprj/dcache_wb_adr\[8\]
*1160 mprj/dcache_wb_adr\[9\]
*1161 mprj/dcache_wb_cyc
*1162 mprj/dcache_wb_err
*1163 mprj/dcache_wb_i_dat\[0\]
*1164 mprj/dcache_wb_i_dat\[10\]
*1165 mprj/dcache_wb_i_dat\[11\]
*1166 mprj/dcache_wb_i_dat\[12\]
*1167 mprj/dcache_wb_i_dat\[13\]
*1168 mprj/dcache_wb_i_dat\[14\]
*1169 mprj/dcache_wb_i_dat\[15\]
*1170 mprj/dcache_wb_i_dat\[1\]
*1171 mprj/dcache_wb_i_dat\[2\]
*1172 mprj/dcache_wb_i_dat\[3\]
*1173 mprj/dcache_wb_i_dat\[4\]
*1174 mprj/dcache_wb_i_dat\[5\]
*1175 mprj/dcache_wb_i_dat\[6\]
*1176 mprj/dcache_wb_i_dat\[7\]
*1177 mprj/dcache_wb_i_dat\[8\]
*1178 mprj/dcache_wb_i_dat\[9\]
*1179 mprj/dcache_wb_o_dat\[0\]
*1180 mprj/dcache_wb_o_dat\[10\]
*1181 mprj/dcache_wb_o_dat\[11\]
*1182 mprj/dcache_wb_o_dat\[12\]
*1183 mprj/dcache_wb_o_dat\[13\]
*1184 mprj/dcache_wb_o_dat\[14\]
*1185 mprj/dcache_wb_o_dat\[15\]
*1186 mprj/dcache_wb_o_dat\[1\]
*1187 mprj/dcache_wb_o_dat\[2\]
*1188 mprj/dcache_wb_o_dat\[3\]
*1189 mprj/dcache_wb_o_dat\[4\]
*1190 mprj/dcache_wb_o_dat\[5\]
*1191 mprj/dcache_wb_o_dat\[6\]
*1192 mprj/dcache_wb_o_dat\[7\]
*1193 mprj/dcache_wb_o_dat\[8\]
*1194 mprj/dcache_wb_o_dat\[9\]
*1195 mprj/dcache_wb_sel\[0\]
*1196 mprj/dcache_wb_sel\[1\]
*1197 mprj/dcache_wb_stb
*1198 mprj/dcache_wb_we
*1199 mprj/ic0_clk
*1200 mprj/ic0_mem_ack
*1201 mprj/ic0_mem_addr\[0\]
*1202 mprj/ic0_mem_addr\[10\]
*1203 mprj/ic0_mem_addr\[11\]
*1204 mprj/ic0_mem_addr\[12\]
*1205 mprj/ic0_mem_addr\[13\]
*1206 mprj/ic0_mem_addr\[14\]
*1207 mprj/ic0_mem_addr\[15\]
*1208 mprj/ic0_mem_addr\[1\]
*1209 mprj/ic0_mem_addr\[2\]
*1210 mprj/ic0_mem_addr\[3\]
*1211 mprj/ic0_mem_addr\[4\]
*1212 mprj/ic0_mem_addr\[5\]
*1213 mprj/ic0_mem_addr\[6\]
*1214 mprj/ic0_mem_addr\[7\]
*1215 mprj/ic0_mem_addr\[8\]
*1216 mprj/ic0_mem_addr\[9\]
*1217 mprj/ic0_mem_cache_flush
*1218 mprj/ic0_mem_data\[0\]
*1219 mprj/ic0_mem_data\[10\]
*1220 mprj/ic0_mem_data\[11\]
*1221 mprj/ic0_mem_data\[12\]
*1222 mprj/ic0_mem_data\[13\]
*1223 mprj/ic0_mem_data\[14\]
*1224 mprj/ic0_mem_data\[15\]
*1225 mprj/ic0_mem_data\[16\]
*1226 mprj/ic0_mem_data\[17\]
*1227 mprj/ic0_mem_data\[18\]
*1228 mprj/ic0_mem_data\[19\]
*1229 mprj/ic0_mem_data\[1\]
*1230 mprj/ic0_mem_data\[20\]
*1231 mprj/ic0_mem_data\[21\]
*1232 mprj/ic0_mem_data\[22\]
*1233 mprj/ic0_mem_data\[23\]
*1234 mprj/ic0_mem_data\[24\]
*1235 mprj/ic0_mem_data\[25\]
*1236 mprj/ic0_mem_data\[26\]
*1237 mprj/ic0_mem_data\[27\]
*1238 mprj/ic0_mem_data\[28\]
*1239 mprj/ic0_mem_data\[29\]
*1240 mprj/ic0_mem_data\[2\]
*1241 mprj/ic0_mem_data\[30\]
*1242 mprj/ic0_mem_data\[31\]