*SPEF "ieee 1481-1999"
*DESIGN "user_project_wrapper"
*DATE "11:11:11 Fri 11 11, 1111"
*VENDOR "OpenRCX"
*PROGRAM "Parallel Extraction"
*VERSION "1.0"
*DESIGN_FLOW "NAME_SCOPE LOCAL" "PIN_CAP NONE"
*DIVIDER /
*DELIMITER :
*BUS_DELIMITER []
*T_UNIT 1 NS
*C_UNIT 1 PF
*R_UNIT 1 OHM
*L_UNIT 1 HENRY

*NAME_MAP
*1 io_in[0]
*2 io_in[10]
*3 io_in[11]
*4 io_in[12]
*5 io_in[13]
*6 io_in[14]
*7 io_in[15]
*8 io_in[16]
*9 io_in[17]
*10 io_in[18]
*11 io_in[19]
*12 io_in[1]
*13 io_in[20]
*14 io_in[21]
*15 io_in[22]
*16 io_in[23]
*17 io_in[24]
*18 io_in[25]
*19 io_in[26]
*20 io_in[27]
*21 io_in[28]
*22 io_in[29]
*23 io_in[2]
*24 io_in[30]
*25 io_in[31]
*26 io_in[32]
*27 io_in[33]
*28 io_in[34]
*29 io_in[35]
*30 io_in[36]
*31 io_in[37]
*32 io_in[3]
*33 io_in[4]
*34 io_in[5]
*35 io_in[6]
*36 io_in[7]
*37 io_in[8]
*38 io_in[9]
*39 io_oeb[0]
*40 io_oeb[10]
*41 io_oeb[11]
*42 io_oeb[12]
*43 io_oeb[13]
*44 io_oeb[14]
*45 io_oeb[15]
*46 io_oeb[16]
*47 io_oeb[17]
*48 io_oeb[18]
*49 io_oeb[19]
*50 io_oeb[1]
*51 io_oeb[20]
*52 io_oeb[21]
*53 io_oeb[22]
*54 io_oeb[23]
*55 io_oeb[24]
*56 io_oeb[25]
*57 io_oeb[26]
*58 io_oeb[27]
*59 io_oeb[28]
*60 io_oeb[29]
*61 io_oeb[2]
*62 io_oeb[30]
*63 io_oeb[31]
*64 io_oeb[32]
*65 io_oeb[33]
*66 io_oeb[34]
*67 io_oeb[35]
*68 io_oeb[36]
*69 io_oeb[37]
*70 io_oeb[3]
*71 io_oeb[4]
*72 io_oeb[5]
*73 io_oeb[6]
*74 io_oeb[7]
*75 io_oeb[8]
*76 io_oeb[9]
*77 io_out[0]
*78 io_out[10]
*79 io_out[11]
*80 io_out[12]
*81 io_out[13]
*82 io_out[14]
*83 io_out[15]
*84 io_out[16]
*85 io_out[17]
*86 io_out[18]
*87 io_out[19]
*88 io_out[1]
*89 io_out[20]
*90 io_out[21]
*91 io_out[22]
*92 io_out[23]
*93 io_out[24]
*94 io_out[25]
*95 io_out[26]
*96 io_out[27]
*97 io_out[28]
*98 io_out[29]
*99 io_out[2]
*100 io_out[30]
*101 io_out[31]
*102 io_out[32]
*103 io_out[33]
*104 io_out[34]
*105 io_out[35]
*106 io_out[36]
*107 io_out[37]
*108 io_out[3]
*109 io_out[4]
*110 io_out[5]
*111 io_out[6]
*112 io_out[7]
*113 io_out[8]
*114 io_out[9]
*115 la_data_in[0]
*116 la_data_in[10]
*117 la_data_in[11]
*118 la_data_in[12]
*119 la_data_in[13]
*120 la_data_in[14]
*121 la_data_in[15]
*122 la_data_in[16]
*123 la_data_in[17]
*124 la_data_in[18]
*125 la_data_in[19]
*126 la_data_in[1]
*127 la_data_in[20]
*128 la_data_in[21]
*129 la_data_in[22]
*130 la_data_in[23]
*131 la_data_in[24]
*132 la_data_in[25]
*133 la_data_in[26]
*134 la_data_in[27]
*135 la_data_in[28]
*136 la_data_in[29]
*137 la_data_in[2]
*138 la_data_in[30]
*139 la_data_in[31]
*140 la_data_in[32]
*141 la_data_in[33]
*142 la_data_in[34]
*143 la_data_in[35]
*144 la_data_in[36]
*145 la_data_in[37]
*146 la_data_in[38]
*147 la_data_in[39]
*148 la_data_in[3]
*149 la_data_in[40]
*150 la_data_in[41]
*151 la_data_in[42]
*152 la_data_in[43]
*153 la_data_in[44]
*154 la_data_in[45]
*155 la_data_in[46]
*156 la_data_in[47]
*157 la_data_in[48]
*158 la_data_in[49]
*159 la_data_in[4]
*160 la_data_in[50]
*161 la_data_in[51]
*162 la_data_in[52]
*163 la_data_in[53]
*164 la_data_in[54]
*165 la_data_in[55]
*166 la_data_in[56]
*167 la_data_in[57]
*168 la_data_in[58]
*169 la_data_in[59]
*170 la_data_in[5]
*171 la_data_in[60]
*172 la_data_in[61]
*173 la_data_in[62]
*174 la_data_in[63]
*175 la_data_in[6]
*176 la_data_in[7]
*177 la_data_in[8]
*178 la_data_in[9]
*179 la_data_out[0]
*180 la_data_out[10]
*181 la_data_out[11]
*182 la_data_out[12]
*183 la_data_out[13]
*184 la_data_out[14]
*185 la_data_out[15]
*186 la_data_out[16]
*187 la_data_out[17]
*188 la_data_out[18]
*189 la_data_out[19]
*190 la_data_out[1]
*191 la_data_out[20]
*192 la_data_out[21]
*193 la_data_out[22]
*194 la_data_out[23]
*195 la_data_out[24]
*196 la_data_out[25]
*197 la_data_out[26]
*198 la_data_out[27]
*199 la_data_out[28]
*200 la_data_out[29]
*201 la_data_out[2]
*202 la_data_out[30]
*203 la_data_out[31]
*204 la_data_out[32]
*205 la_data_out[33]
*206 la_data_out[34]
*207 la_data_out[35]
*208 la_data_out[36]
*209 la_data_out[37]
*210 la_data_out[38]
*211 la_data_out[39]
*212 la_data_out[3]
*213 la_data_out[40]
*214 la_data_out[41]
*215 la_data_out[42]
*216 la_data_out[43]
*217 la_data_out[44]
*218 la_data_out[45]
*219 la_data_out[46]
*220 la_data_out[47]
*221 la_data_out[48]
*222 la_data_out[49]
*223 la_data_out[4]
*224 la_data_out[50]
*225 la_data_out[51]
*226 la_data_out[52]
*227 la_data_out[53]
*228 la_data_out[54]
*229 la_data_out[55]
*230 la_data_out[56]
*231 la_data_out[57]
*232 la_data_out[58]
*233 la_data_out[59]
*234 la_data_out[5]
*235 la_data_out[60]
*236 la_data_out[61]
*237 la_data_out[62]
*238 la_data_out[63]
*239 la_data_out[6]
*240 la_data_out[7]
*241 la_data_out[8]
*242 la_data_out[9]
*243 la_oenb[0]
*244 la_oenb[10]
*245 la_oenb[11]
*246 la_oenb[12]
*247 la_oenb[13]
*248 la_oenb[14]
*249 la_oenb[15]
*250 la_oenb[16]
*251 la_oenb[17]
*252 la_oenb[18]
*253 la_oenb[19]
*254 la_oenb[1]
*255 la_oenb[20]
*256 la_oenb[21]
*257 la_oenb[22]
*258 la_oenb[23]
*259 la_oenb[24]
*260 la_oenb[25]
*261 la_oenb[26]
*262 la_oenb[27]
*263 la_oenb[28]
*264 la_oenb[29]
*265 la_oenb[2]
*266 la_oenb[30]
*267 la_oenb[31]
*268 la_oenb[32]
*269 la_oenb[33]
*270 la_oenb[34]
*271 la_oenb[35]
*272 la_oenb[36]
*273 la_oenb[37]
*274 la_oenb[38]
*275 la_oenb[39]
*276 la_oenb[3]
*277 la_oenb[40]
*278 la_oenb[41]
*279 la_oenb[42]
*280 la_oenb[43]
*281 la_oenb[44]
*282 la_oenb[45]
*283 la_oenb[46]
*284 la_oenb[47]
*285 la_oenb[48]
*286 la_oenb[49]
*287 la_oenb[4]
*288 la_oenb[50]
*289 la_oenb[51]
*290 la_oenb[52]
*291 la_oenb[53]
*292 la_oenb[54]
*293 la_oenb[55]
*294 la_oenb[56]
*295 la_oenb[57]
*296 la_oenb[58]
*297 la_oenb[59]
*298 la_oenb[5]
*299 la_oenb[60]
*300 la_oenb[61]
*301 la_oenb[62]
*302 la_oenb[63]
*303 la_oenb[6]
*304 la_oenb[7]
*305 la_oenb[8]
*306 la_oenb[9]
*307 user_clock2
*308 user_irq[0]
*309 user_irq[1]
*310 user_irq[2]
*313 wb_clk_i
*314 wb_rst_i
*315 wbs_ack_o
*316 wbs_adr_i[0]
*317 wbs_adr_i[10]
*318 wbs_adr_i[11]
*319 wbs_adr_i[12]
*320 wbs_adr_i[13]
*321 wbs_adr_i[14]
*322 wbs_adr_i[15]
*323 wbs_adr_i[16]
*324 wbs_adr_i[17]
*325 wbs_adr_i[18]
*326 wbs_adr_i[19]
*327 wbs_adr_i[1]
*328 wbs_adr_i[20]
*329 wbs_adr_i[21]
*330 wbs_adr_i[22]
*331 wbs_adr_i[23]
*332 wbs_adr_i[24]
*333 wbs_adr_i[25]
*334 wbs_adr_i[26]
*335 wbs_adr_i[27]
*336 wbs_adr_i[28]
*337 wbs_adr_i[29]
*338 wbs_adr_i[2]
*339 wbs_adr_i[30]
*340 wbs_adr_i[31]
*341 wbs_adr_i[3]
*342 wbs_adr_i[4]
*343 wbs_adr_i[5]
*344 wbs_adr_i[6]
*345 wbs_adr_i[7]
*346 wbs_adr_i[8]
*347 wbs_adr_i[9]
*348 wbs_cyc_i
*349 wbs_dat_i[0]
*350 wbs_dat_i[10]
*351 wbs_dat_i[11]
*352 wbs_dat_i[12]
*353 wbs_dat_i[13]
*354 wbs_dat_i[14]
*355 wbs_dat_i[15]
*356 wbs_dat_i[16]
*357 wbs_dat_i[17]
*358 wbs_dat_i[18]
*359 wbs_dat_i[19]
*360 wbs_dat_i[1]
*361 wbs_dat_i[20]
*362 wbs_dat_i[21]
*363 wbs_dat_i[22]
*364 wbs_dat_i[23]
*365 wbs_dat_i[24]
*366 wbs_dat_i[25]
*367 wbs_dat_i[26]
*368 wbs_dat_i[27]
*369 wbs_dat_i[28]
*370 wbs_dat_i[29]
*371 wbs_dat_i[2]
*372 wbs_dat_i[30]
*373 wbs_dat_i[31]
*374 wbs_dat_i[3]
*375 wbs_dat_i[4]
*376 wbs_dat_i[5]
*377 wbs_dat_i[6]
*378 wbs_dat_i[7]
*379 wbs_dat_i[8]
*380 wbs_dat_i[9]
*381 wbs_dat_o[0]
*382 wbs_dat_o[10]
*383 wbs_dat_o[11]
*384 wbs_dat_o[12]
*385 wbs_dat_o[13]
*386 wbs_dat_o[14]
*387 wbs_dat_o[15]
*388 wbs_dat_o[16]
*389 wbs_dat_o[17]
*390 wbs_dat_o[18]
*391 wbs_dat_o[19]
*392 wbs_dat_o[1]
*393 wbs_dat_o[20]
*394 wbs_dat_o[21]
*395 wbs_dat_o[22]
*396 wbs_dat_o[23]
*397 wbs_dat_o[24]
*398 wbs_dat_o[25]
*399 wbs_dat_o[26]
*400 wbs_dat_o[27]
*401 wbs_dat_o[28]
*402 wbs_dat_o[29]
*403 wbs_dat_o[2]
*404 wbs_dat_o[30]
*405 wbs_dat_o[31]
*406 wbs_dat_o[3]
*407 wbs_dat_o[4]
*408 wbs_dat_o[5]
*409 wbs_dat_o[6]
*410 wbs_dat_o[7]
*411 wbs_dat_o[8]
*412 wbs_dat_o[9]
*413 wbs_sel_i[0]
*414 wbs_sel_i[1]
*415 wbs_sel_i[2]
*416 wbs_sel_i[3]
*417 wbs_stb_i
*418 wbs_we_i
*419 mprj/c0_clk
*420 mprj/c0_disable
*421 mprj/c0_i_core_int_sreg\[0\]
*422 mprj/c0_i_core_int_sreg\[10\]
*423 mprj/c0_i_core_int_sreg\[11\]
*424 mprj/c0_i_core_int_sreg\[12\]
*425 mprj/c0_i_core_int_sreg\[13\]
*426 mprj/c0_i_core_int_sreg\[14\]
*427 mprj/c0_i_core_int_sreg\[15\]
*428 mprj/c0_i_core_int_sreg\[1\]
*429 mprj/c0_i_core_int_sreg\[2\]
*430 mprj/c0_i_core_int_sreg\[3\]
*431 mprj/c0_i_core_int_sreg\[4\]
*432 mprj/c0_i_core_int_sreg\[5\]
*433 mprj/c0_i_core_int_sreg\[6\]
*434 mprj/c0_i_core_int_sreg\[7\]
*435 mprj/c0_i_core_int_sreg\[8\]
*436 mprj/c0_i_core_int_sreg\[9\]
*437 mprj/c0_i_irq
*438 mprj/c0_i_mc_core_int
*439 mprj/c0_i_mem_ack
*440 mprj/c0_i_mem_data\[0\]
*441 mprj/c0_i_mem_data\[10\]
*442 mprj/c0_i_mem_data\[11\]
*443 mprj/c0_i_mem_data\[12\]
*444 mprj/c0_i_mem_data\[13\]
*445 mprj/c0_i_mem_data\[14\]
*446 mprj/c0_i_mem_data\[15\]
*447 mprj/c0_i_mem_data\[1\]
*448 mprj/c0_i_mem_data\[2\]
*449 mprj/c0_i_mem_data\[3\]
*450 mprj/c0_i_mem_data\[4\]
*451 mprj/c0_i_mem_data\[5\]
*452 mprj/c0_i_mem_data\[6\]
*453 mprj/c0_i_mem_data\[7\]
*454 mprj/c0_i_mem_data\[8\]
*455 mprj/c0_i_mem_data\[9\]
*456 mprj/c0_i_mem_exception
*457 mprj/c0_i_req_data\[0\]
*458 mprj/c0_i_req_data\[10\]
*459 mprj/c0_i_req_data\[11\]
*460 mprj/c0_i_req_data\[12\]
*461 mprj/c0_i_req_data\[13\]
*462 mprj/c0_i_req_data\[14\]
*463 mprj/c0_i_req_data\[15\]
*464 mprj/c0_i_req_data\[16\]
*465 mprj/c0_i_req_data\[17\]
*466 mprj/c0_i_req_data\[18\]
*467 mprj/c0_i_req_data\[19\]
*468 mprj/c0_i_req_data\[1\]
*469 mprj/c0_i_req_data\[20\]
*470 mprj/c0_i_req_data\[21\]
*471 mprj/c0_i_req_data\[22\]
*472 mprj/c0_i_req_data\[23\]
*473 mprj/c0_i_req_data\[24\]
*474 mprj/c0_i_req_data\[25\]
*475 mprj/c0_i_req_data\[26\]
*476 mprj/c0_i_req_data\[27\]
*477 mprj/c0_i_req_data\[28\]
*478 mprj/c0_i_req_data\[29\]
*479 mprj/c0_i_req_data\[2\]
*480 mprj/c0_i_req_data\[30\]
*481 mprj/c0_i_req_data\[31\]
*482 mprj/c0_i_req_data\[3\]
*483 mprj/c0_i_req_data\[4\]
*484 mprj/c0_i_req_data\[5\]
*485 mprj/c0_i_req_data\[6\]
*486 mprj/c0_i_req_data\[7\]
*487 mprj/c0_i_req_data\[8\]
*488 mprj/c0_i_req_data\[9\]
*489 mprj/c0_i_req_data_valid
*490 mprj/c0_o_c_data_page
*491 mprj/c0_o_c_instr_long
*492 mprj/c0_o_c_instr_page
*493 mprj/c0_o_icache_flush
*494 mprj/c0_o_instr_long_addr\[0\]
*495 mprj/c0_o_instr_long_addr\[1\]
*496 mprj/c0_o_instr_long_addr\[2\]
*497 mprj/c0_o_instr_long_addr\[3\]
*498 mprj/c0_o_instr_long_addr\[4\]
*499 mprj/c0_o_instr_long_addr\[5\]
*500 mprj/c0_o_instr_long_addr\[6\]
*501 mprj/c0_o_instr_long_addr\[7\]
*502 mprj/c0_o_mem_addr\[0\]
*503 mprj/c0_o_mem_addr\[10\]
*504 mprj/c0_o_mem_addr\[11\]
*505 mprj/c0_o_mem_addr\[12\]
*506 mprj/c0_o_mem_addr\[13\]
*507 mprj/c0_o_mem_addr\[14\]
*508 mprj/c0_o_mem_addr\[15\]
*509 mprj/c0_o_mem_addr\[1\]
*510 mprj/c0_o_mem_addr\[2\]
*511 mprj/c0_o_mem_addr\[3\]
*512 mprj/c0_o_mem_addr\[4\]
*513 mprj/c0_o_mem_addr\[5\]
*514 mprj/c0_o_mem_addr\[6\]
*515 mprj/c0_o_mem_addr\[7\]
*516 mprj/c0_o_mem_addr\[8\]
*517 mprj/c0_o_mem_addr\[9\]
*518 mprj/c0_o_mem_addr_high\[0\]
*519 mprj/c0_o_mem_addr_high\[1\]
*520 mprj/c0_o_mem_addr_high\[2\]
*521 mprj/c0_o_mem_addr_high\[3\]
*522 mprj/c0_o_mem_addr_high\[4\]
*523 mprj/c0_o_mem_addr_high\[5\]
*524 mprj/c0_o_mem_addr_high\[6\]
*525 mprj/c0_o_mem_addr_high\[7\]
*526 mprj/c0_o_mem_data\[0\]
*527 mprj/c0_o_mem_data\[10\]
*528 mprj/c0_o_mem_data\[11\]
*529 mprj/c0_o_mem_data\[12\]
*530 mprj/c0_o_mem_data\[13\]
*531 mprj/c0_o_mem_data\[14\]
*532 mprj/c0_o_mem_data\[15\]
*533 mprj/c0_o_mem_data\[1\]
*534 mprj/c0_o_mem_data\[2\]
*535 mprj/c0_o_mem_data\[3\]
*536 mprj/c0_o_mem_data\[4\]
*537 mprj/c0_o_mem_data\[5\]
*538 mprj/c0_o_mem_data\[6\]
*539 mprj/c0_o_mem_data\[7\]
*540 mprj/c0_o_mem_data\[8\]
*541 mprj/c0_o_mem_data\[9\]
*542 mprj/c0_o_mem_long
*543 mprj/c0_o_mem_req
*544 mprj/c0_o_mem_sel\[0\]
*545 mprj/c0_o_mem_sel\[1\]
*546 mprj/c0_o_mem_we
*547 mprj/c0_o_req_active
*548 mprj/c0_o_req_addr\[0\]
*549 mprj/c0_o_req_addr\[10\]
*550 mprj/c0_o_req_addr\[11\]
*551 mprj/c0_o_req_addr\[12\]
*552 mprj/c0_o_req_addr\[13\]
*553 mprj/c0_o_req_addr\[14\]
*554 mprj/c0_o_req_addr\[15\]
*555 mprj/c0_o_req_addr\[1\]
*556 mprj/c0_o_req_addr\[2\]
*557 mprj/c0_o_req_addr\[3\]
*558 mprj/c0_o_req_addr\[4\]
*559 mprj/c0_o_req_addr\[5\]
*560 mprj/c0_o_req_addr\[6\]
*561 mprj/c0_o_req_addr\[7\]
*562 mprj/c0_o_req_addr\[8\]
*563 mprj/c0_o_req_addr\[9\]
*564 mprj/c0_o_req_ppl_submit
*565 mprj/c0_rst
*566 mprj/c0_sr_bus_addr\[0\]
*567 mprj/c0_sr_bus_addr\[10\]
*568 mprj/c0_sr_bus_addr\[11\]
*569 mprj/c0_sr_bus_addr\[12\]
*570 mprj/c0_sr_bus_addr\[13\]
*571 mprj/c0_sr_bus_addr\[14\]
*572 mprj/c0_sr_bus_addr\[15\]
*573 mprj/c0_sr_bus_addr\[1\]
*574 mprj/c0_sr_bus_addr\[2\]
*575 mprj/c0_sr_bus_addr\[3\]
*576 mprj/c0_sr_bus_addr\[4\]
*577 mprj/c0_sr_bus_addr\[5\]
*578 mprj/c0_sr_bus_addr\[6\]
*579 mprj/c0_sr_bus_addr\[7\]
*580 mprj/c0_sr_bus_addr\[8\]
*581 mprj/c0_sr_bus_addr\[9\]
*582 mprj/c0_sr_bus_data_o\[0\]
*583 mprj/c0_sr_bus_data_o\[10\]
*584 mprj/c0_sr_bus_data_o\[11\]
*585 mprj/c0_sr_bus_data_o\[12\]
*586 mprj/c0_sr_bus_data_o\[13\]
*587 mprj/c0_sr_bus_data_o\[14\]
*588 mprj/c0_sr_bus_data_o\[15\]
*589 mprj/c0_sr_bus_data_o\[1\]
*590 mprj/c0_sr_bus_data_o\[2\]
*591 mprj/c0_sr_bus_data_o\[3\]
*592 mprj/c0_sr_bus_data_o\[4\]
*593 mprj/c0_sr_bus_data_o\[5\]
*594 mprj/c0_sr_bus_data_o\[6\]
*595 mprj/c0_sr_bus_data_o\[7\]
*596 mprj/c0_sr_bus_data_o\[8\]
*597 mprj/c0_sr_bus_data_o\[9\]
*598 mprj/c0_sr_bus_we
*599 mprj/c1_clk
*600 mprj/c1_dbg_pc\[0\]
*601 mprj/c1_dbg_pc\[10\]
*602 mprj/c1_dbg_pc\[11\]
*603 mprj/c1_dbg_pc\[12\]
*604 mprj/c1_dbg_pc\[13\]
*605 mprj/c1_dbg_pc\[14\]
*606 mprj/c1_dbg_pc\[15\]
*607 mprj/c1_dbg_pc\[1\]
*608 mprj/c1_dbg_pc\[2\]
*609 mprj/c1_dbg_pc\[3\]
*610 mprj/c1_dbg_pc\[4\]
*611 mprj/c1_dbg_pc\[5\]
*612 mprj/c1_dbg_pc\[6\]
*613 mprj/c1_dbg_pc\[7\]
*614 mprj/c1_dbg_pc\[8\]
*615 mprj/c1_dbg_pc\[9\]
*616 mprj/c1_dbg_r0\[0\]
*617 mprj/c1_dbg_r0\[10\]
*618 mprj/c1_dbg_r0\[11\]
*619 mprj/c1_dbg_r0\[12\]
*620 mprj/c1_dbg_r0\[13\]
*621 mprj/c1_dbg_r0\[14\]
*622 mprj/c1_dbg_r0\[15\]
*623 mprj/c1_dbg_r0\[1\]
*624 mprj/c1_dbg_r0\[2\]
*625 mprj/c1_dbg_r0\[3\]
*626 mprj/c1_dbg_r0\[4\]
*627 mprj/c1_dbg_r0\[5\]
*628 mprj/c1_dbg_r0\[6\]
*629 mprj/c1_dbg_r0\[7\]
*630 mprj/c1_dbg_r0\[8\]
*631 mprj/c1_dbg_r0\[9\]
*632 mprj/c1_disable
*633 mprj/c1_i_core_int_sreg\[0\]
*634 mprj/c1_i_core_int_sreg\[10\]
*635 mprj/c1_i_core_int_sreg\[11\]
*636 mprj/c1_i_core_int_sreg\[12\]
*637 mprj/c1_i_core_int_sreg\[13\]
*638 mprj/c1_i_core_int_sreg\[14\]
*639 mprj/c1_i_core_int_sreg\[15\]
*640 mprj/c1_i_core_int_sreg\[1\]
*641 mprj/c1_i_core_int_sreg\[2\]
*642 mprj/c1_i_core_int_sreg\[3\]
*643 mprj/c1_i_core_int_sreg\[4\]
*644 mprj/c1_i_core_int_sreg\[5\]
*645 mprj/c1_i_core_int_sreg\[6\]
*646 mprj/c1_i_core_int_sreg\[7\]
*647 mprj/c1_i_core_int_sreg\[8\]
*648 mprj/c1_i_core_int_sreg\[9\]
*649 mprj/c1_i_irq
*650 mprj/c1_i_mc_core_int
*651 mprj/c1_i_mem_ack
*652 mprj/c1_i_mem_data\[0\]
*653 mprj/c1_i_mem_data\[10\]
*654 mprj/c1_i_mem_data\[11\]
*655 mprj/c1_i_mem_data\[12\]
*656 mprj/c1_i_mem_data\[13\]
*657 mprj/c1_i_mem_data\[14\]
*658 mprj/c1_i_mem_data\[15\]
*659 mprj/c1_i_mem_data\[1\]
*660 mprj/c1_i_mem_data\[2\]
*661 mprj/c1_i_mem_data\[3\]
*662 mprj/c1_i_mem_data\[4\]
*663 mprj/c1_i_mem_data\[5\]
*664 mprj/c1_i_mem_data\[6\]
*665 mprj/c1_i_mem_data\[7\]
*666 mprj/c1_i_mem_data\[8\]
*667 mprj/c1_i_mem_data\[9\]
*668 mprj/c1_i_mem_exception
*669 mprj/c1_i_req_data\[0\]
*670 mprj/c1_i_req_data\[10\]
*671 mprj/c1_i_req_data\[11\]
*672 mprj/c1_i_req_data\[12\]
*673 mprj/c1_i_req_data\[13\]
*674 mprj/c1_i_req_data\[14\]
*675 mprj/c1_i_req_data\[15\]
*676 mprj/c1_i_req_data\[16\]
*677 mprj/c1_i_req_data\[17\]
*678 mprj/c1_i_req_data\[18\]
*679 mprj/c1_i_req_data\[19\]
*680 mprj/c1_i_req_data\[1\]
*681 mprj/c1_i_req_data\[20\]
*682 mprj/c1_i_req_data\[21\]
*683 mprj/c1_i_req_data\[22\]
*684 mprj/c1_i_req_data\[23\]
*685 mprj/c1_i_req_data\[24\]
*686 mprj/c1_i_req_data\[25\]
*687 mprj/c1_i_req_data\[26\]
*688 mprj/c1_i_req_data\[27\]
*689 mprj/c1_i_req_data\[28\]
*690 mprj/c1_i_req_data\[29\]
*691 mprj/c1_i_req_data\[2\]
*692 mprj/c1_i_req_data\[30\]
*693 mprj/c1_i_req_data\[31\]
*694 mprj/c1_i_req_data\[3\]
*695 mprj/c1_i_req_data\[4\]
*696 mprj/c1_i_req_data\[5\]
*697 mprj/c1_i_req_data\[6\]
*698 mprj/c1_i_req_data\[7\]
*699 mprj/c1_i_req_data\[8\]
*700 mprj/c1_i_req_data\[9\]
*701 mprj/c1_i_req_data_valid
*702 mprj/c1_o_c_data_page
*703 mprj/c1_o_c_instr_long
*704 mprj/c1_o_c_instr_page
*705 mprj/c1_o_icache_flush
*706 mprj/c1_o_instr_long_addr\[0\]
*707 mprj/c1_o_instr_long_addr\[1\]
*708 mprj/c1_o_instr_long_addr\[2\]
*709 mprj/c1_o_instr_long_addr\[3\]
*710 mprj/c1_o_instr_long_addr\[4\]
*711 mprj/c1_o_instr_long_addr\[5\]
*712 mprj/c1_o_instr_long_addr\[6\]
*713 mprj/c1_o_instr_long_addr\[7\]
*714 mprj/c1_o_mem_addr\[0\]
*715 mprj/c1_o_mem_addr\[10\]
*716 mprj/c1_o_mem_addr\[11\]
*717 mprj/c1_o_mem_addr\[12\]
*718 mprj/c1_o_mem_addr\[13\]
*719 mprj/c1_o_mem_addr\[14\]
*720 mprj/c1_o_mem_addr\[15\]
*721 mprj/c1_o_mem_addr\[1\]
*722 mprj/c1_o_mem_addr\[2\]
*723 mprj/c1_o_mem_addr\[3\]
*724 mprj/c1_o_mem_addr\[4\]
*725 mprj/c1_o_mem_addr\[5\]
*726 mprj/c1_o_mem_addr\[6\]
*727 mprj/c1_o_mem_addr\[7\]
*728 mprj/c1_o_mem_addr\[8\]
*729 mprj/c1_o_mem_addr\[9\]
*730 mprj/c1_o_mem_addr_high\[0\]
*731 mprj/c1_o_mem_addr_high\[1\]
*732 mprj/c1_o_mem_addr_high\[2\]
*733 mprj/c1_o_mem_addr_high\[3\]
*734 mprj/c1_o_mem_addr_high\[4\]
*735 mprj/c1_o_mem_addr_high\[5\]
*736 mprj/c1_o_mem_addr_high\[6\]
*737 mprj/c1_o_mem_addr_high\[7\]
*738 mprj/c1_o_mem_data\[0\]
*739 mprj/c1_o_mem_data\[10\]
*740 mprj/c1_o_mem_data\[11\]
*741 mprj/c1_o_mem_data\[12\]
*742 mprj/c1_o_mem_data\[13\]
*743 mprj/c1_o_mem_data\[14\]
*744 mprj/c1_o_mem_data\[15\]
*745 mprj/c1_o_mem_data\[1\]
*746 mprj/c1_o_mem_data\[2\]
*747 mprj/c1_o_mem_data\[3\]
*748 mprj/c1_o_mem_data\[4\]
*749 mprj/c1_o_mem_data\[5\]
*750 mprj/c1_o_mem_data\[6\]
*751 mprj/c1_o_mem_data\[7\]
*752 mprj/c1_o_mem_data\[8\]
*753 mprj/c1_o_mem_data\[9\]
*754 mprj/c1_o_mem_long
*755 mprj/c1_o_mem_req
*756 mprj/c1_o_mem_sel\[0\]
*757 mprj/c1_o_mem_sel\[1\]
*758 mprj/c1_o_mem_we
*759 mprj/c1_o_req_active
*760 mprj/c1_o_req_addr\[0\]
*761 mprj/c1_o_req_addr\[10\]
*762 mprj/c1_o_req_addr\[11\]
*763 mprj/c1_o_req_addr\[12\]
*764 mprj/c1_o_req_addr\[13\]
*765 mprj/c1_o_req_addr\[14\]
*766 mprj/c1_o_req_addr\[15\]
*767 mprj/c1_o_req_addr\[1\]
*768 mprj/c1_o_req_addr\[2\]
*769 mprj/c1_o_req_addr\[3\]
*770 mprj/c1_o_req_addr\[4\]
*771 mprj/c1_o_req_addr\[5\]
*772 mprj/c1_o_req_addr\[6\]
*773 mprj/c1_o_req_addr\[7\]
*774 mprj/c1_o_req_addr\[8\]
*775 mprj/c1_o_req_addr\[9\]
*776 mprj/c1_o_req_ppl_submit
*777 mprj/c1_rst
*778 mprj/c1_sr_bus_addr\[0\]
*779 mprj/c1_sr_bus_addr\[10\]
*780 mprj/c1_sr_bus_addr\[11\]
*781 mprj/c1_sr_bus_addr\[12\]
*782 mprj/c1_sr_bus_addr\[13\]
*783 mprj/c1_sr_bus_addr\[14\]
*784 mprj/c1_sr_bus_addr\[15\]
*785 mprj/c1_sr_bus_addr\[1\]
*786 mprj/c1_sr_bus_addr\[2\]
*787 mprj/c1_sr_bus_addr\[3\]
*788 mprj/c1_sr_bus_addr\[4\]
*789 mprj/c1_sr_bus_addr\[5\]
*790 mprj/c1_sr_bus_addr\[6\]
*791 mprj/c1_sr_bus_addr\[7\]
*792 mprj/c1_sr_bus_addr\[8\]
*793 mprj/c1_sr_bus_addr\[9\]
*794 mprj/c1_sr_bus_data_o\[0\]
*795 mprj/c1_sr_bus_data_o\[10\]
*796 mprj/c1_sr_bus_data_o\[11\]
*797 mprj/c1_sr_bus_data_o\[12\]
*798 mprj/c1_sr_bus_data_o\[13\]
*799 mprj/c1_sr_bus_data_o\[14\]
*800 mprj/c1_sr_bus_data_o\[15\]
*801 mprj/c1_sr_bus_data_o\[1\]
*802 mprj/c1_sr_bus_data_o\[2\]
*803 mprj/c1_sr_bus_data_o\[3\]
*804 mprj/c1_sr_bus_data_o\[4\]
*805 mprj/c1_sr_bus_data_o\[5\]
*806 mprj/c1_sr_bus_data_o\[6\]
*807 mprj/c1_sr_bus_data_o\[7\]
*808 mprj/c1_sr_bus_data_o\[8\]
*809 mprj/c1_sr_bus_data_o\[9\]
*810 mprj/c1_sr_bus_we
*811 mprj/dcache_clk
*812 mprj/dcache_mem_ack
*813 mprj/dcache_mem_addr\[0\]
*814 mprj/dcache_mem_addr\[10\]
*815 mprj/dcache_mem_addr\[11\]
*816 mprj/dcache_mem_addr\[12\]
*817 mprj/dcache_mem_addr\[13\]
*818 mprj/dcache_mem_addr\[14\]
*819 mprj/dcache_mem_addr\[15\]
*820 mprj/dcache_mem_addr\[16\]
*821 mprj/dcache_mem_addr\[17\]
*822 mprj/dcache_mem_addr\[18\]
*823 mprj/dcache_mem_addr\[19\]
*824 mprj/dcache_mem_addr\[1\]
*825 mprj/dcache_mem_addr\[20\]
*826 mprj/dcache_mem_addr\[21\]
*827 mprj/dcache_mem_addr\[22\]
*828 mprj/dcache_mem_addr\[23\]
*829 mprj/dcache_mem_addr\[2\]
*830 mprj/dcache_mem_addr\[3\]
*831 mprj/dcache_mem_addr\[4\]
*832 mprj/dcache_mem_addr\[5\]
*833 mprj/dcache_mem_addr\[6\]
*834 mprj/dcache_mem_addr\[7\]
*835 mprj/dcache_mem_addr\[8\]
*836 mprj/dcache_mem_addr\[9\]
*837 mprj/dcache_mem_cache_enable
*838 mprj/dcache_mem_exception
*839 mprj/dcache_mem_i_data\[0\]
*840 mprj/dcache_mem_i_data\[10\]
*841 mprj/dcache_mem_i_data\[11\]
*842 mprj/dcache_mem_i_data\[12\]
*843 mprj/dcache_mem_i_data\[13\]
*844 mprj/dcache_mem_i_data\[14\]
*845 mprj/dcache_mem_i_data\[15\]
*846 mprj/dcache_mem_i_data\[1\]
*847 mprj/dcache_mem_i_data\[2\]
*848 mprj/dcache_mem_i_data\[3\]
*849 mprj/dcache_mem_i_data\[4\]
*850 mprj/dcache_mem_i_data\[5\]
*851 mprj/dcache_mem_i_data\[6\]
*852 mprj/dcache_mem_i_data\[7\]
*853 mprj/dcache_mem_i_data\[8\]
*854 mprj/dcache_mem_i_data\[9\]
*855 mprj/dcache_mem_o_data\[0\]
*856 mprj/dcache_mem_o_data\[10\]
*857 mprj/dcache_mem_o_data\[11\]
*858 mprj/dcache_mem_o_data\[12\]
*859 mprj/dcache_mem_o_data\[13\]
*860 mprj/dcache_mem_o_data\[14\]
*861 mprj/dcache_mem_o_data\[15\]
*862 mprj/dcache_mem_o_data\[1\]
*863 mprj/dcache_mem_o_data\[2\]
*864 mprj/dcache_mem_o_data\[3\]
*865 mprj/dcache_mem_o_data\[4\]
*866 mprj/dcache_mem_o_data\[5\]
*867 mprj/dcache_mem_o_data\[6\]
*868 mprj/dcache_mem_o_data\[7\]
*869 mprj/dcache_mem_o_data\[8\]
*870 mprj/dcache_mem_o_data\[9\]
*871 mprj/dcache_mem_req
*872 mprj/dcache_mem_sel\[0\]
*873 mprj/dcache_mem_sel\[1\]
*874 mprj/dcache_mem_we
*875 mprj/dcache_rst
*876 mprj/dcache_wb_4_burst
*877 mprj/dcache_wb_ack
*878 mprj/dcache_wb_adr\[0\]
*879 mprj/dcache_wb_adr\[10\]
*880 mprj/dcache_wb_adr\[11\]
*881 mprj/dcache_wb_adr\[12\]
*882 mprj/dcache_wb_adr\[13\]
*883 mprj/dcache_wb_adr\[14\]
*884 mprj/dcache_wb_adr\[15\]
*885 mprj/dcache_wb_adr\[16\]
*886 mprj/dcache_wb_adr\[17\]
*887 mprj/dcache_wb_adr\[18\]
*888 mprj/dcache_wb_adr\[19\]
*889 mprj/dcache_wb_adr\[1\]
*890 mprj/dcache_wb_adr\[20\]
*891 mprj/dcache_wb_adr\[21\]
*892 mprj/dcache_wb_adr\[22\]
*893 mprj/dcache_wb_adr\[23\]
*894 mprj/dcache_wb_adr\[2\]
*895 mprj/dcache_wb_adr\[3\]
*896 mprj/dcache_wb_adr\[4\]
*897 mprj/dcache_wb_adr\[5\]
*898 mprj/dcache_wb_adr\[6\]
*899 mprj/dcache_wb_adr\[7\]
*900 mprj/dcache_wb_adr\[8\]
*901 mprj/dcache_wb_adr\[9\]
*902 mprj/dcache_wb_cyc
*903 mprj/dcache_wb_err
*904 mprj/dcache_wb_i_dat\[0\]
*905 mprj/dcache_wb_i_dat\[10\]
*906 mprj/dcache_wb_i_dat\[11\]
*907 mprj/dcache_wb_i_dat\[12\]
*908 mprj/dcache_wb_i_dat\[13\]
*909 mprj/dcache_wb_i_dat\[14\]
*910 mprj/dcache_wb_i_dat\[15\]
*911 mprj/dcache_wb_i_dat\[1\]
*912 mprj/dcache_wb_i_dat\[2\]
*913 mprj/dcache_wb_i_dat\[3\]
*914 mprj/dcache_wb_i_dat\[4\]
*915 mprj/dcache_wb_i_dat\[5\]
*916 mprj/dcache_wb_i_dat\[6\]
*917 mprj/dcache_wb_i_dat\[7\]
*918 mprj/dcache_wb_i_dat\[8\]
*919 mprj/dcache_wb_i_dat\[9\]
*920 mprj/dcache_wb_o_dat\[0\]
*921 mprj/dcache_wb_o_dat\[10\]
*922 mprj/dcache_wb_o_dat\[11\]
*923 mprj/dcache_wb_o_dat\[12\]
*924 mprj/dcache_wb_o_dat\[13\]
*925 mprj/dcache_wb_o_dat\[14\]
*926 mprj/dcache_wb_o_dat\[15\]
*927 mprj/dcache_wb_o_dat\[1\]
*928 mprj/dcache_wb_o_dat\[2\]
*929 mprj/dcache_wb_o_dat\[3\]
*930 mprj/dcache_wb_o_dat\[4\]
*931 mprj/dcache_wb_o_dat\[5\]
*932 mprj/dcache_wb_o_dat\[6\]
*933 mprj/dcache_wb_o_dat\[7\]
*934 mprj/dcache_wb_o_dat\[8\]
*935 mprj/dcache_wb_o_dat\[9\]
*936 mprj/dcache_wb_sel\[0\]
*937 mprj/dcache_wb_sel\[1\]
*938 mprj/dcache_wb_stb
*939 mprj/dcache_wb_we
*940 mprj/ic0_clk
*941 mprj/ic0_mem_ack
*942 mprj/ic0_mem_addr\[0\]
*943 mprj/ic0_mem_addr\[10\]
*944 mprj/ic0_mem_addr\[11\]
*945 mprj/ic0_mem_addr\[12\]
*946 mprj/ic0_mem_addr\[13\]
*947 mprj/ic0_mem_addr\[14\]
*948 mprj/ic0_mem_addr\[15\]
*949 mprj/ic0_mem_addr\[1\]
*950 mprj/ic0_mem_addr\[2\]
*951 mprj/ic0_mem_addr\[3\]
*952 mprj/ic0_mem_addr\[4\]
*953 mprj/ic0_mem_addr\[5\]
*954 mprj/ic0_mem_addr\[6\]
*955 mprj/ic0_mem_addr\[7\]
*956 mprj/ic0_mem_addr\[8\]
*957 mprj/ic0_mem_addr\[9\]
*958 mprj/ic0_mem_cache_flush
*959 mprj/ic0_mem_data\[0\]
*960 mprj/ic0_mem_data\[10\]
*961 mprj/ic0_mem_data\[11\]
*962 mprj/ic0_mem_data\[12\]
*963 mprj/ic0_mem_data\[13\]
*964 mprj/ic0_mem_data\[14\]
*965 mprj/ic0_mem_data\[15\]
*966 mprj/ic0_mem_data\[16\]
*967 mprj/ic0_mem_data\[17\]
*968 mprj/ic0_mem_data\[18\]
*969 mprj/ic0_mem_data\[19\]
*970 mprj/ic0_mem_data\[1\]
*971 mprj/ic0_mem_data\[20\]
*972 mprj/ic0_mem_data\[21\]
*973 mprj/ic0_mem_data\[22\]
*974 mprj/ic0_mem_data\[23\]
*975 mprj/ic0_mem_data\[24\]
*976 mprj/ic0_mem_data\[25\]
*977 mprj/ic0_mem_data\[26\]
*978 mprj/ic0_mem_data\[27\]
*979 mprj/ic0_mem_data\[28\]
*980 mprj/ic0_mem_data\[29\]
*981 mprj/ic0_mem_data\[2\]
*982 mprj/ic0_mem_data\[30\]
*983 mprj/ic0_mem_data\[31\]
*984 mprj/ic0_mem_data\[3\]
*985 mprj/ic0_mem_data\[4\]
*986 mprj/ic0_mem_data\[5\]
*987 mprj/ic0_mem_data\[6\]
*988 mprj/ic0_mem_data\[7\]
*989 mprj/ic0_mem_data\[8\]
*990 mprj/ic0_mem_data\[9\]
*991 mprj/ic0_mem_ppl_submit
*992 mprj/ic0_mem_req
*993 mprj/ic0_rst
*994 mprj/ic0_wb_ack
*995 mprj/ic0_wb_adr\[0\]
*996 mprj/ic0_wb_adr\[10\]
*997 mprj/ic0_wb_adr\[11\]
*998 mprj/ic0_wb_adr\[12\]
*999 mprj/ic0_wb_adr\[13\]
*1000 mprj/ic0_wb_adr\[14\]
*1001 mprj/ic0_wb_adr\[15\]
*1002 mprj/ic0_wb_adr\[1\]
*1003 mprj/ic0_wb_adr\[2\]
*1004 mprj/ic0_wb_adr\[3\]
*1005 mprj/ic0_wb_adr\[4\]
*1006 mprj/ic0_wb_adr\[5\]
*1007 mprj/ic0_wb_adr\[6\]
*1008 mprj/ic0_wb_adr\[7\]
*1009 mprj/ic0_wb_adr\[8\]
*1010 mprj/ic0_wb_adr\[9\]
*1011 mprj/ic0_wb_cyc
*1012 mprj/ic0_wb_err
*1013 mprj/ic0_wb_i_dat\[0\]
*1014 mprj/ic0_wb_i_dat\[10\]
*1015 mprj/ic0_wb_i_dat\[11\]
*1016 mprj/ic0_wb_i_dat\[12\]
*1017 mprj/ic0_wb_i_dat\[13\]
*1018 mprj/ic0_wb_i_dat\[14\]
*1019 mprj/ic0_wb_i_dat\[15\]
*1020 mprj/ic0_wb_i_dat\[1\]
*1021 mprj/ic0_wb_i_dat\[2\]
*1022 mprj/ic0_wb_i_dat\[3\]
*1023 mprj/ic0_wb_i_dat\[4\]
*1024 mprj/ic0_wb_i_dat\[5\]
*1025 mprj/ic0_wb_i_dat\[6\]
*1026 mprj/ic0_wb_i_dat\[7\]
*1027 mprj/ic0_wb_i_dat\[8\]
*1028 mprj/ic0_wb_i_dat\[9\]
*1029 mprj/ic0_wb_sel\[0\]
*1030 mprj/ic0_wb_sel\[1\]
*1031 mprj/ic0_wb_stb
*1032 mprj/ic0_wb_we
*1033 mprj/ic1_clk
*1034 mprj/ic1_mem_ack
*1035 mprj/ic1_mem_addr\[0\]
*1036 mprj/ic1_mem_addr\[10\]
*1037 mprj/ic1_mem_addr\[11\]
*1038 mprj/ic1_mem_addr\[12\]
*1039 mprj/ic1_mem_addr\[13\]
*1040 mprj/ic1_mem_addr\[14\]
*1041 mprj/ic1_mem_addr\[15\]
*1042 mprj/ic1_mem_addr\[1\]
*1043 mprj/ic1_mem_addr\[2\]
*1044 mprj/ic1_mem_addr\[3\]
*1045 mprj/ic1_mem_addr\[4\]
*1046 mprj/ic1_mem_addr\[5\]
*1047 mprj/ic1_mem_addr\[6\]
*1048 mprj/ic1_mem_addr\[7\]
*1049 mprj/ic1_mem_addr\[8\]
*1050 mprj/ic1_mem_addr\[9\]
*1051 mprj/ic1_mem_cache_flush
*1052 mprj/ic1_mem_data\[0\]
*1053 mprj/ic1_mem_data\[10\]
*1054 mprj/ic1_mem_data\[11\]
*1055 mprj/ic1_mem_data\[12\]
*1056 mprj/ic1_mem_data\[13\]
*1057 mprj/ic1_mem_data\[14\]
*1058 mprj/ic1_mem_data\[15\]
*1059 mprj/ic1_mem_data\[16\]
*1060 mprj/ic1_mem_data\[17\]
*1061 mprj/ic1_mem_data\[18\]
*1062 mprj/ic1_mem_data\[19\]
*1063 mprj/ic1_mem_data\[1\]
*1064 mprj/ic1_mem_data\[20\]
*1065 mprj/ic1_mem_data\[21\]
*1066 mprj/ic1_mem_data\[22\]
*1067 mprj/ic1_mem_data\[23\]
*1068 mprj/ic1_mem_data\[24\]
*1069 mprj/ic1_mem_data\[25\]
*1070 mprj/ic1_mem_data\[26\]
*1071 mprj/ic1_mem_data\[27\]
*1072 mprj/ic1_mem_data\[28\]
*1073 mprj/ic1_mem_data\[29\]
*1074 mprj/ic1_mem_data\[2\]
*1075 mprj/ic1_mem_data\[30\]
*1076 mprj/ic1_mem_data\[31\]
*1077 mprj/ic1_mem_data\[3\]
*1078 mprj/ic1_mem_data\[4\]
*1079 mprj/ic1_mem_data\[5\]
*1080 mprj/ic1_mem_data\[6\]
*1081 mprj/ic1_mem_data\[7\]
*1082 mprj/ic1_mem_data\[8\]
*1083 mprj/ic1_mem_data\[9\]
*1084 mprj/ic1_mem_ppl_submit
*1085 mprj/ic1_mem_req
*1086 mprj/ic1_rst
*1087 mprj/ic1_wb_ack
*1088 mprj/ic1_wb_adr\[0\]
*1089 mprj/ic1_wb_adr\[10\]
*1090 mprj/ic1_wb_adr\[11\]
*1091 mprj/ic1_wb_adr\[12\]
*1092 mprj/ic1_wb_adr\[13\]
*1093 mprj/ic1_wb_adr\[14\]
*1094 mprj/ic1_wb_adr\[15\]
*1095 mprj/ic1_wb_adr\[1\]
*1096 mprj/ic1_wb_adr\[2\]
*1097 mprj/ic1_wb_adr\[3\]
*1098 mprj/ic1_wb_adr\[4\]
*1099 mprj/ic1_wb_adr\[5\]
*1100 mprj/ic1_wb_adr\[6\]
*1101 mprj/ic1_wb_adr\[7\]
*1102 mprj/ic1_wb_adr\[8\]
*1103 mprj/ic1_wb_adr\[9\]
*1104 mprj/ic1_wb_cyc
*1105 mprj/ic1_wb_err
*1106 mprj/ic1_wb_i_dat\[0\]
*1107 mprj/ic1_wb_i_dat\[10\]
*1108 mprj/ic1_wb_i_dat\[11\]
*1109 mprj/ic1_wb_i_dat\[12\]
*1110 mprj/ic1_wb_i_dat\[13\]
*1111 mprj/ic1_wb_i_dat\[14\]
*1112 mprj/ic1_wb_i_dat\[15\]
*1113 mprj/ic1_wb_i_dat\[1\]
*1114 mprj/ic1_wb_i_dat\[2\]
*1115 mprj/ic1_wb_i_dat\[3\]
*1116 mprj/ic1_wb_i_dat\[4\]
*1117 mprj/ic1_wb_i_dat\[5\]
*1118 mprj/ic1_wb_i_dat\[6\]
*1119 mprj/ic1_wb_i_dat\[7\]
*1120 mprj/ic1_wb_i_dat\[8\]
*1121 mprj/ic1_wb_i_dat\[9\]
*1122 mprj/ic1_wb_sel\[0\]
*1123 mprj/ic1_wb_sel\[1\]
*1124 mprj/ic1_wb_stb
*1125 mprj/ic1_wb_we
*1126 mprj/inner_clock
*1127 mprj/inner_disable
*1128 mprj/inner_embed_mode
*1129 mprj/inner_ext_irq
*1130 mprj/inner_reset
*1131 mprj/inner_wb_4_burst
*1132 mprj/inner_wb_8_burst
*1133 mprj/inner_wb_ack
*1134 mprj/inner_wb_adr\[0\]
*1135 mprj/inner_wb_adr\[10\]
*1136 mprj/inner_wb_adr\[11\]
*1137 mprj/inner_wb_adr\[12\]
*1138 mprj/inner_wb_adr\[13\]
*1139 mprj/inner_wb_adr\[14\]
*1140 mprj/inner_wb_adr\[15\]
*1141 mprj/inner_wb_adr\[16\]
*1142 mprj/inner_wb_adr\[17\]
*1143 mprj/inner_wb_adr\[18\]
*1144 mprj/inner_wb_adr\[19\]
*1145 mprj/inner_wb_adr\[1\]
*1146 mprj/inner_wb_adr\[20\]
*1147 mprj/inner_wb_adr\[21\]
*1148 mprj/inner_wb_adr\[22\]
*1149 mprj/inner_wb_adr\[23\]
*1150 mprj/inner_wb_adr\[2\]
*1151 mprj/inner_wb_adr\[3\]
*1152 mprj/inner_wb_adr\[4\]
*1153 mprj/inner_wb_adr\[5\]
*1154 mprj/inner_wb_adr\[6\]
*1155 mprj/inner_wb_adr\[7\]
*1156 mprj/inner_wb_adr\[8\]
*1157 mprj/inner_wb_adr\[9\]
*1158 mprj/inner_wb_cyc
*1159 mprj/inner_wb_err
*1160 mprj/inner_wb_i_dat\[0\]
*1161 mprj/inner_wb_i_dat\[10\]
*1162 mprj/inner_wb_i_dat\[11\]
*1163 mprj/inner_wb_i_dat\[12\]
*1164 mprj/inner_wb_i_dat\[13\]
*1165 mprj/inner_wb_i_dat\[14\]
*1166 mprj/inner_wb_i_dat\[15\]
*1167 mprj/inner_wb_i_dat\[1\]
*1168 mprj/inner_wb_i_dat\[2\]
*1169 mprj/inner_wb_i_dat\[3\]
*1170 mprj/inner_wb_i_dat\[4\]
*1171 mprj/inner_wb_i_dat\[5\]
*1172 mprj/inner_wb_i_dat\[6\]
*1173 mprj/inner_wb_i_dat\[7\]
*1174 mprj/inner_wb_i_dat\[8\]